*SPEF "ieee 1481-1999"
*DESIGN "wrapper_fibonacci"
*DATE "11:11:11 Fri 11 11, 1111"
*VENDOR "OpenRCX"
*PROGRAM "Parallel Extraction"
*VERSION "1.0"
*DESIGN_FLOW "NAME_SCOPE LOCAL" "PIN_CAP NONE"
*DIVIDER /
*DELIMITER :
*BUS_DELIMITER []
*T_UNIT 1 NS
*C_UNIT 1 PF
*R_UNIT 1 OHM
*L_UNIT 1 HENRY

*NAME_MAP
*1 active
*2 io_in[0]
*3 io_in[10]
*4 io_in[11]
*5 io_in[12]
*6 io_in[13]
*7 io_in[14]
*8 io_in[15]
*9 io_in[16]
*10 io_in[17]
*11 io_in[18]
*12 io_in[19]
*13 io_in[1]
*14 io_in[20]
*15 io_in[21]
*16 io_in[22]
*17 io_in[23]
*18 io_in[24]
*19 io_in[25]
*20 io_in[26]
*21 io_in[27]
*22 io_in[28]
*23 io_in[29]
*24 io_in[2]
*25 io_in[30]
*26 io_in[31]
*27 io_in[32]
*28 io_in[33]
*29 io_in[34]
*30 io_in[35]
*31 io_in[36]
*32 io_in[37]
*33 io_in[3]
*34 io_in[4]
*35 io_in[5]
*36 io_in[6]
*37 io_in[7]
*38 io_in[8]
*39 io_in[9]
*40 io_oeb[0]
*41 io_oeb[10]
*42 io_oeb[11]
*43 io_oeb[12]
*44 io_oeb[13]
*45 io_oeb[14]
*46 io_oeb[15]
*47 io_oeb[16]
*48 io_oeb[17]
*49 io_oeb[18]
*50 io_oeb[19]
*51 io_oeb[1]
*52 io_oeb[20]
*53 io_oeb[21]
*54 io_oeb[22]
*55 io_oeb[23]
*56 io_oeb[24]
*57 io_oeb[25]
*58 io_oeb[26]
*59 io_oeb[27]
*60 io_oeb[28]
*61 io_oeb[29]
*62 io_oeb[2]
*63 io_oeb[30]
*64 io_oeb[31]
*65 io_oeb[32]
*66 io_oeb[33]
*67 io_oeb[34]
*68 io_oeb[35]
*69 io_oeb[36]
*70 io_oeb[37]
*71 io_oeb[3]
*72 io_oeb[4]
*73 io_oeb[5]
*74 io_oeb[6]
*75 io_oeb[7]
*76 io_oeb[8]
*77 io_oeb[9]
*78 io_out[0]
*79 io_out[10]
*80 io_out[11]
*81 io_out[12]
*82 io_out[13]
*83 io_out[14]
*84 io_out[15]
*85 io_out[16]
*86 io_out[17]
*87 io_out[18]
*88 io_out[19]
*89 io_out[1]
*90 io_out[20]
*91 io_out[21]
*92 io_out[22]
*93 io_out[23]
*94 io_out[24]
*95 io_out[25]
*96 io_out[26]
*97 io_out[27]
*98 io_out[28]
*99 io_out[29]
*100 io_out[2]
*101 io_out[30]
*102 io_out[31]
*103 io_out[32]
*104 io_out[33]
*105 io_out[34]
*106 io_out[35]
*107 io_out[36]
*108 io_out[37]
*109 io_out[3]
*110 io_out[4]
*111 io_out[5]
*112 io_out[6]
*113 io_out[7]
*114 io_out[8]
*115 io_out[9]
*116 irq[0]
*117 irq[1]
*118 irq[2]
*119 la_data_in[0]
*120 la_data_in[10]
*121 la_data_in[11]
*122 la_data_in[12]
*123 la_data_in[13]
*124 la_data_in[14]
*125 la_data_in[15]
*126 la_data_in[16]
*127 la_data_in[17]
*128 la_data_in[18]
*129 la_data_in[19]
*130 la_data_in[1]
*131 la_data_in[20]
*132 la_data_in[21]
*133 la_data_in[22]
*134 la_data_in[23]
*135 la_data_in[24]
*136 la_data_in[25]
*137 la_data_in[26]
*138 la_data_in[27]
*139 la_data_in[28]
*140 la_data_in[29]
*141 la_data_in[2]
*142 la_data_in[30]
*143 la_data_in[31]
*144 la_data_in[3]
*145 la_data_in[4]
*146 la_data_in[5]
*147 la_data_in[6]
*148 la_data_in[7]
*149 la_data_in[8]
*150 la_data_in[9]
*151 la_data_out[0]
*152 la_data_out[10]
*153 la_data_out[11]
*154 la_data_out[12]
*155 la_data_out[13]
*156 la_data_out[14]
*157 la_data_out[15]
*158 la_data_out[16]
*159 la_data_out[17]
*160 la_data_out[18]
*161 la_data_out[19]
*162 la_data_out[1]
*163 la_data_out[20]
*164 la_data_out[21]
*165 la_data_out[22]
*166 la_data_out[23]
*167 la_data_out[24]
*168 la_data_out[25]
*169 la_data_out[26]
*170 la_data_out[27]
*171 la_data_out[28]
*172 la_data_out[29]
*173 la_data_out[2]
*174 la_data_out[30]
*175 la_data_out[31]
*176 la_data_out[3]
*177 la_data_out[4]
*178 la_data_out[5]
*179 la_data_out[6]
*180 la_data_out[7]
*181 la_data_out[8]
*182 la_data_out[9]
*183 la_oenb[0]
*184 la_oenb[10]
*185 la_oenb[11]
*186 la_oenb[12]
*187 la_oenb[13]
*188 la_oenb[14]
*189 la_oenb[15]
*190 la_oenb[16]
*191 la_oenb[17]
*192 la_oenb[18]
*193 la_oenb[19]
*194 la_oenb[1]
*195 la_oenb[20]
*196 la_oenb[21]
*197 la_oenb[22]
*198 la_oenb[23]
*199 la_oenb[24]
*200 la_oenb[25]
*201 la_oenb[26]
*202 la_oenb[27]
*203 la_oenb[28]
*204 la_oenb[29]
*205 la_oenb[2]
*206 la_oenb[30]
*207 la_oenb[31]
*208 la_oenb[3]
*209 la_oenb[4]
*210 la_oenb[5]
*211 la_oenb[6]
*212 la_oenb[7]
*213 la_oenb[8]
*214 la_oenb[9]
*215 user_clock2
*218 wb_clk_i
*219 wb_rst_i
*220 wbs_ack_o
*221 wbs_adr_i[0]
*222 wbs_adr_i[10]
*223 wbs_adr_i[11]
*224 wbs_adr_i[12]
*225 wbs_adr_i[13]
*226 wbs_adr_i[14]
*227 wbs_adr_i[15]
*228 wbs_adr_i[16]
*229 wbs_adr_i[17]
*230 wbs_adr_i[18]
*231 wbs_adr_i[19]
*232 wbs_adr_i[1]
*233 wbs_adr_i[20]
*234 wbs_adr_i[21]
*235 wbs_adr_i[22]
*236 wbs_adr_i[23]
*237 wbs_adr_i[24]
*238 wbs_adr_i[25]
*239 wbs_adr_i[26]
*240 wbs_adr_i[27]
*241 wbs_adr_i[28]
*242 wbs_adr_i[29]
*243 wbs_adr_i[2]
*244 wbs_adr_i[30]
*245 wbs_adr_i[31]
*246 wbs_adr_i[3]
*247 wbs_adr_i[4]
*248 wbs_adr_i[5]
*249 wbs_adr_i[6]
*250 wbs_adr_i[7]
*251 wbs_adr_i[8]
*252 wbs_adr_i[9]
*253 wbs_cyc_i
*254 wbs_dat_i[0]
*255 wbs_dat_i[10]
*256 wbs_dat_i[11]
*257 wbs_dat_i[12]
*258 wbs_dat_i[13]
*259 wbs_dat_i[14]
*260 wbs_dat_i[15]
*261 wbs_dat_i[16]
*262 wbs_dat_i[17]
*263 wbs_dat_i[18]
*264 wbs_dat_i[19]
*265 wbs_dat_i[1]
*266 wbs_dat_i[20]
*267 wbs_dat_i[21]
*268 wbs_dat_i[22]
*269 wbs_dat_i[23]
*270 wbs_dat_i[24]
*271 wbs_dat_i[25]
*272 wbs_dat_i[26]
*273 wbs_dat_i[27]
*274 wbs_dat_i[28]
*275 wbs_dat_i[29]
*276 wbs_dat_i[2]
*277 wbs_dat_i[30]
*278 wbs_dat_i[31]
*279 wbs_dat_i[3]
*280 wbs_dat_i[4]
*281 wbs_dat_i[5]
*282 wbs_dat_i[6]
*283 wbs_dat_i[7]
*284 wbs_dat_i[8]
*285 wbs_dat_i[9]
*286 wbs_dat_o[0]
*287 wbs_dat_o[10]
*288 wbs_dat_o[11]
*289 wbs_dat_o[12]
*290 wbs_dat_o[13]
*291 wbs_dat_o[14]
*292 wbs_dat_o[15]
*293 wbs_dat_o[16]
*294 wbs_dat_o[17]
*295 wbs_dat_o[18]
*296 wbs_dat_o[19]
*297 wbs_dat_o[1]
*298 wbs_dat_o[20]
*299 wbs_dat_o[21]
*300 wbs_dat_o[22]
*301 wbs_dat_o[23]
*302 wbs_dat_o[24]
*303 wbs_dat_o[25]
*304 wbs_dat_o[26]
*305 wbs_dat_o[27]
*306 wbs_dat_o[28]
*307 wbs_dat_o[29]
*308 wbs_dat_o[2]
*309 wbs_dat_o[30]
*310 wbs_dat_o[31]
*311 wbs_dat_o[3]
*312 wbs_dat_o[4]
*313 wbs_dat_o[5]
*314 wbs_dat_o[6]
*315 wbs_dat_o[7]
*316 wbs_dat_o[8]
*317 wbs_dat_o[9]
*318 wbs_sel_i[0]
*319 wbs_sel_i[1]
*320 wbs_sel_i[2]
*321 wbs_sel_i[3]
*322 wbs_stb_i
*323 wbs_we_i
*324 Clock_1\.clkout
*325 Clock_1\.counter\[0\]
*326 Clock_1\.counter\[1\]
*327 Clock_1\.counter\[2\]
*328 Clock_1\.counter\[3\]
*329 Clock_1\.counter\[4\]
*330 Clock_1\.counter\[5\]
*331 Clock_1\.counter\[6\]
*332 Clock_2\.clkout
*333 Clock_2\.counter\[0\]
*334 Clock_2\.counter\[10\]
*335 Clock_2\.counter\[11\]
*336 Clock_2\.counter\[12\]
*337 Clock_2\.counter\[13\]
*338 Clock_2\.counter\[14\]
*339 Clock_2\.counter\[1\]
*340 Clock_2\.counter\[2\]
*341 Clock_2\.counter\[3\]
*342 Clock_2\.counter\[4\]
*343 Clock_2\.counter\[5\]
*344 Clock_2\.counter\[6\]
*345 Clock_2\.counter\[7\]
*346 Clock_2\.counter\[8\]
*347 Clock_2\.counter\[9\]
*348 Clock_3\.clkout
*349 Clock_3\.counter\[0\]
*350 Clock_3\.counter\[10\]
*351 Clock_3\.counter\[11\]
*352 Clock_3\.counter\[12\]
*353 Clock_3\.counter\[13\]
*354 Clock_3\.counter\[14\]
*355 Clock_3\.counter\[15\]
*356 Clock_3\.counter\[16\]
*357 Clock_3\.counter\[17\]
*358 Clock_3\.counter\[18\]
*359 Clock_3\.counter\[19\]
*360 Clock_3\.counter\[1\]
*361 Clock_3\.counter\[20\]
*362 Clock_3\.counter\[21\]
*363 Clock_3\.counter\[22\]
*364 Clock_3\.counter\[2\]
*365 Clock_3\.counter\[3\]
*366 Clock_3\.counter\[4\]
*367 Clock_3\.counter\[5\]
*368 Clock_3\.counter\[6\]
*369 Clock_3\.counter\[7\]
*370 Clock_3\.counter\[8\]
*371 Clock_3\.counter\[9\]
*372 Clock_4\.clkout
*373 Clock_4\.counter\[0\]
*374 Clock_4\.counter\[10\]
*375 Clock_4\.counter\[11\]
*376 Clock_4\.counter\[12\]
*377 Clock_4\.counter\[13\]
*378 Clock_4\.counter\[14\]
*379 Clock_4\.counter\[15\]
*380 Clock_4\.counter\[16\]
*381 Clock_4\.counter\[17\]
*382 Clock_4\.counter\[18\]
*383 Clock_4\.counter\[19\]
*384 Clock_4\.counter\[1\]
*385 Clock_4\.counter\[20\]
*386 Clock_4\.counter\[21\]
*387 Clock_4\.counter\[22\]
*388 Clock_4\.counter\[23\]
*389 Clock_4\.counter\[24\]
*390 Clock_4\.counter\[25\]
*391 Clock_4\.counter\[26\]
*392 Clock_4\.counter\[27\]
*393 Clock_4\.counter\[28\]
*394 Clock_4\.counter\[29\]
*395 Clock_4\.counter\[2\]
*396 Clock_4\.counter\[30\]
*397 Clock_4\.counter\[3\]
*398 Clock_4\.counter\[4\]
*399 Clock_4\.counter\[5\]
*400 Clock_4\.counter\[6\]
*401 Clock_4\.counter\[7\]
*402 Clock_4\.counter\[8\]
*403 Clock_4\.counter\[9\]
*404 Clock_5\.clkout
*405 Clock_5\.counter\[0\]
*406 Clock_5\.counter\[10\]
*407 Clock_5\.counter\[11\]
*408 Clock_5\.counter\[12\]
*409 Clock_5\.counter\[13\]
*410 Clock_5\.counter\[14\]
*411 Clock_5\.counter\[15\]
*412 Clock_5\.counter\[16\]
*413 Clock_5\.counter\[17\]
*414 Clock_5\.counter\[18\]
*415 Clock_5\.counter\[19\]
*416 Clock_5\.counter\[1\]
*417 Clock_5\.counter\[20\]
*418 Clock_5\.counter\[21\]
*419 Clock_5\.counter\[22\]
*420 Clock_5\.counter\[23\]
*421 Clock_5\.counter\[24\]
*422 Clock_5\.counter\[25\]
*423 Clock_5\.counter\[26\]
*424 Clock_5\.counter\[27\]
*425 Clock_5\.counter\[28\]
*426 Clock_5\.counter\[29\]
*427 Clock_5\.counter\[2\]
*428 Clock_5\.counter\[30\]
*429 Clock_5\.counter\[31\]
*430 Clock_5\.counter\[32\]
*431 Clock_5\.counter\[33\]
*432 Clock_5\.counter\[34\]
*433 Clock_5\.counter\[3\]
*434 Clock_5\.counter\[4\]
*435 Clock_5\.counter\[5\]
*436 Clock_5\.counter\[6\]
*437 Clock_5\.counter\[7\]
*438 Clock_5\.counter\[8\]
*439 Clock_5\.counter\[9\]
*440 Fibonacci\.clk
*441 Fibonacci\.current\[0\]
*442 Fibonacci\.current\[10\]
*443 Fibonacci\.current\[11\]
*444 Fibonacci\.current\[12\]
*445 Fibonacci\.current\[13\]
*446 Fibonacci\.current\[14\]
*447 Fibonacci\.current\[15\]
*448 Fibonacci\.current\[16\]
*449 Fibonacci\.current\[17\]
*450 Fibonacci\.current\[18\]
*451 Fibonacci\.current\[19\]
*452 Fibonacci\.current\[1\]
*453 Fibonacci\.current\[20\]
*454 Fibonacci\.current\[21\]
*455 Fibonacci\.current\[22\]
*456 Fibonacci\.current\[23\]
*457 Fibonacci\.current\[24\]
*458 Fibonacci\.current\[25\]
*459 Fibonacci\.current\[26\]
*460 Fibonacci\.current\[27\]
*461 Fibonacci\.current\[28\]
*462 Fibonacci\.current\[29\]
*463 Fibonacci\.current\[2\]
*464 Fibonacci\.current\[3\]
*465 Fibonacci\.current\[4\]
*466 Fibonacci\.current\[5\]
*467 Fibonacci\.current\[6\]
*468 Fibonacci\.current\[7\]
*469 Fibonacci\.current\[8\]
*470 Fibonacci\.current\[9\]
*471 Fibonacci\.previous\[0\]
*472 Fibonacci\.previous\[10\]
*473 Fibonacci\.previous\[11\]
*474 Fibonacci\.previous\[12\]
*475 Fibonacci\.previous\[13\]
*476 Fibonacci\.previous\[14\]
*477 Fibonacci\.previous\[15\]
*478 Fibonacci\.previous\[16\]
*479 Fibonacci\.previous\[17\]
*480 Fibonacci\.previous\[18\]
*481 Fibonacci\.previous\[19\]
*482 Fibonacci\.previous\[1\]
*483 Fibonacci\.previous\[20\]
*484 Fibonacci\.previous\[21\]
*485 Fibonacci\.previous\[22\]
*486 Fibonacci\.previous\[23\]
*487 Fibonacci\.previous\[24\]
*488 Fibonacci\.previous\[25\]
*489 Fibonacci\.previous\[26\]
*490 Fibonacci\.previous\[27\]
*491 Fibonacci\.previous\[28\]
*492 Fibonacci\.previous\[2\]
*493 Fibonacci\.previous\[3\]
*494 Fibonacci\.previous\[4\]
*495 Fibonacci\.previous\[5\]
*496 Fibonacci\.previous\[6\]
*497 Fibonacci\.previous\[7\]
*498 Fibonacci\.previous\[8\]
*499 Fibonacci\.previous\[9\]
*500 Fibonacci\.value\[0\]
*501 Fibonacci\.value\[10\]
*502 Fibonacci\.value\[11\]
*503 Fibonacci\.value\[12\]
*504 Fibonacci\.value\[13\]
*505 Fibonacci\.value\[14\]
*506 Fibonacci\.value\[15\]
*507 Fibonacci\.value\[16\]
*508 Fibonacci\.value\[17\]
*509 Fibonacci\.value\[18\]
*510 Fibonacci\.value\[19\]
*511 Fibonacci\.value\[1\]
*512 Fibonacci\.value\[20\]
*513 Fibonacci\.value\[21\]
*514 Fibonacci\.value\[22\]
*515 Fibonacci\.value\[23\]
*516 Fibonacci\.value\[24\]
*517 Fibonacci\.value\[25\]
*518 Fibonacci\.value\[26\]
*519 Fibonacci\.value\[27\]
*520 Fibonacci\.value\[28\]
*521 Fibonacci\.value\[2\]
*522 Fibonacci\.value\[3\]
*523 Fibonacci\.value\[4\]
*524 Fibonacci\.value\[5\]
*525 Fibonacci\.value\[6\]
*526 Fibonacci\.value\[7\]
*527 Fibonacci\.value\[8\]
*528 Fibonacci\.value\[9\]
*529 WishBone\.buffer\[0\]
*530 WishBone\.buffer\[10\]
*531 WishBone\.buffer\[11\]
*532 WishBone\.buffer\[12\]
*533 WishBone\.buffer\[13\]
*534 WishBone\.buffer\[14\]
*535 WishBone\.buffer\[15\]
*536 WishBone\.buffer\[16\]
*537 WishBone\.buffer\[17\]
*538 WishBone\.buffer\[18\]
*539 WishBone\.buffer\[19\]
*540 WishBone\.buffer\[1\]
*541 WishBone\.buffer\[20\]
*542 WishBone\.buffer\[21\]
*543 WishBone\.buffer\[22\]
*544 WishBone\.buffer\[23\]
*545 WishBone\.buffer\[24\]
*546 WishBone\.buffer\[25\]
*547 WishBone\.buffer\[26\]
*548 WishBone\.buffer\[27\]
*549 WishBone\.buffer\[28\]
*550 WishBone\.buffer\[29\]
*551 WishBone\.buffer\[2\]
*552 WishBone\.buffer\[30\]
*553 WishBone\.buffer\[31\]
*554 WishBone\.buffer\[3\]
*555 WishBone\.buffer\[4\]
*556 WishBone\.buffer\[5\]
*557 WishBone\.buffer\[6\]
*558 WishBone\.buffer\[7\]
*559 WishBone\.buffer\[8\]
*560 WishBone\.buffer\[9\]
*561 WishBone\.buffer_o\[0\]
*562 WishBone\.buffer_o\[10\]
*563 WishBone\.buffer_o\[11\]
*564 WishBone\.buffer_o\[12\]
*565 WishBone\.buffer_o\[13\]
*566 WishBone\.buffer_o\[14\]
*567 WishBone\.buffer_o\[15\]
*568 WishBone\.buffer_o\[16\]
*569 WishBone\.buffer_o\[17\]
*570 WishBone\.buffer_o\[18\]
*571 WishBone\.buffer_o\[19\]
*572 WishBone\.buffer_o\[1\]
*573 WishBone\.buffer_o\[20\]
*574 WishBone\.buffer_o\[21\]
*575 WishBone\.buffer_o\[22\]
*576 WishBone\.buffer_o\[23\]
*577 WishBone\.buffer_o\[24\]
*578 WishBone\.buffer_o\[25\]
*579 WishBone\.buffer_o\[26\]
*580 WishBone\.buffer_o\[27\]
*581 WishBone\.buffer_o\[28\]
*582 WishBone\.buffer_o\[29\]
*583 WishBone\.buffer_o\[2\]
*584 WishBone\.buffer_o\[30\]
*585 WishBone\.buffer_o\[31\]
*586 WishBone\.buffer_o\[3\]
*587 WishBone\.buffer_o\[4\]
*588 WishBone\.buffer_o\[5\]
*589 WishBone\.buffer_o\[6\]
*590 WishBone\.buffer_o\[7\]
*591 WishBone\.buffer_o\[8\]
*592 WishBone\.buffer_o\[9\]
*593 WishBone\.clock_op\[0\]
*594 WishBone\.clock_op\[1\]
*595 WishBone\.clock_op\[2\]
*596 WishBone\.clock_op\[3\]
*597 WishBone\.clock_op\[4\]
*598 WishBone\.clock_op\[5\]
*599 WishBone\.fibonacci_switch
*600 WishBone\.irq_out\[0\]
*601 WishBone\.irq_out\[1\]
*602 WishBone\.irq_out\[2\]
*603 WishBone\.panic
*604 WishBone\.tickle_irq\[0\]
*605 WishBone\.tickle_irq\[1\]
*606 WishBone\.tickle_irq\[2\]
*607 WishBone\.transmit
*608 WishBone\.wbs_ack_o
*609 WishBone\.wbs_dat_o\[0\]
*610 WishBone\.wbs_dat_o\[10\]
*611 WishBone\.wbs_dat_o\[11\]
*612 WishBone\.wbs_dat_o\[12\]
*613 WishBone\.wbs_dat_o\[13\]
*614 WishBone\.wbs_dat_o\[14\]
*615 WishBone\.wbs_dat_o\[15\]
*616 WishBone\.wbs_dat_o\[16\]
*617 WishBone\.wbs_dat_o\[17\]
*618 WishBone\.wbs_dat_o\[18\]
*619 WishBone\.wbs_dat_o\[19\]
*620 WishBone\.wbs_dat_o\[1\]
*621 WishBone\.wbs_dat_o\[20\]
*622 WishBone\.wbs_dat_o\[21\]
*623 WishBone\.wbs_dat_o\[22\]
*624 WishBone\.wbs_dat_o\[23\]
*625 WishBone\.wbs_dat_o\[24\]
*626 WishBone\.wbs_dat_o\[25\]
*627 WishBone\.wbs_dat_o\[26\]
*628 WishBone\.wbs_dat_o\[27\]
*629 WishBone\.wbs_dat_o\[28\]
*630 WishBone\.wbs_dat_o\[29\]
*631 WishBone\.wbs_dat_o\[2\]
*632 WishBone\.wbs_dat_o\[30\]
*633 WishBone\.wbs_dat_o\[31\]
*634 WishBone\.wbs_dat_o\[3\]
*635 WishBone\.wbs_dat_o\[4\]
*636 WishBone\.wbs_dat_o\[5\]
*637 WishBone\.wbs_dat_o\[6\]
*638 WishBone\.wbs_dat_o\[7\]
*639 WishBone\.wbs_dat_o\[8\]
*640 WishBone\.wbs_dat_o\[9\]
*641 _0000_
*642 _0001_
*643 _0002_
*644 _0003_
*645 _0004_
*646 _0005_
*647 _0006_
*648 _0007_
*649 _0008_
*650 _0009_
*651 _0010_
*652 _0011_
*653 _0012_
*654 _0013_
*655 _0014_
*656 _0015_
*657 _0016_
*658 _0017_
*659 _0018_
*660 _0019_
*661 _0020_
*662 _0021_
*663 _0022_
*664 _0023_
*665 _0024_
*666 _0025_
*667 _0026_
*668 _0027_
*669 _0028_
*670 _0029_
*671 _0030_
*672 _0031_
*673 _0032_
*674 _0033_
*675 _0034_
*676 _0035_
*677 _0036_
*678 _0037_
*679 _0038_
*680 _0039_
*681 _0040_
*682 _0041_
*683 _0042_
*684 _0043_
*685 _0044_
*686 _0045_
*687 _0046_
*688 _0047_
*689 _0048_
*690 _0049_
*691 _0050_
*692 _0051_
*693 _0052_
*694 _0053_
*695 _0054_
*696 _0055_
*697 _0056_
*698 _0057_
*699 _0058_
*700 _0059_
*701 _0060_
*702 _0061_
*703 _0062_
*704 _0063_
*705 _0064_
*706 _0065_
*707 _0066_
*708 _0067_
*709 _0068_
*710 _0069_
*711 _0070_
*712 _0071_
*713 _0072_
*714 _0073_
*715 _0074_
*716 _0075_
*717 _0076_
*718 _0077_
*719 _0078_
*720 _0079_
*721 _0080_
*722 _0081_
*723 _0082_
*724 _0083_
*725 _0084_
*726 _0085_
*727 _0086_
*728 _0087_
*729 _0088_
*730 _0089_
*731 _0090_
*732 _0091_
*733 _0092_
*734 _0093_
*735 _0094_
*736 _0095_
*737 _0096_
*738 _0097_
*739 _0098_
*740 _0099_
*741 _0100_
*742 _0101_
*743 _0102_
*744 _0103_
*745 _0104_
*746 _0105_
*747 _0106_
*748 _0107_
*749 _0108_
*750 _0109_
*751 _0110_
*752 _0111_
*753 _0112_
*754 _0113_
*755 _0114_
*756 _0115_
*757 _0116_
*758 _0117_
*759 _0118_
*760 _0119_
*761 _0120_
*762 _0121_
*763 _0122_
*764 _0123_
*765 _0124_
*766 _0125_
*767 _0126_
*768 _0127_
*769 _0128_
*770 _0129_
*771 _0130_
*772 _0131_
*773 _0132_
*774 _0133_
*775 _0134_
*776 _0135_
*777 _0136_
*778 _0137_
*779 _0138_
*780 _0139_
*781 _0140_
*782 _0141_
*783 _0142_
*784 _0143_
*785 _0144_
*786 _0145_
*787 _0146_
*788 _0147_
*789 _0148_
*790 _0149_
*791 _0150_
*792 _0151_
*793 _0152_
*794 _0153_
*795 _0154_
*796 _0155_
*797 _0156_
*798 _0157_
*799 _0158_
*800 _0159_
*801 _0160_
*802 _0161_
*803 _0162_
*804 _0163_
*805 _0164_
*806 _0165_
*807 _0166_
*808 _0167_
*809 _0168_
*810 _0169_
*811 _0170_
*812 _0171_
*813 _0172_
*814 _0173_
*815 _0174_
*816 _0175_
*817 _0176_
*818 _0177_
*819 _0178_
*820 _0179_
*821 _0180_
*822 _0181_
*823 _0182_
*824 _0183_
*825 _0184_
*826 _0185_
*827 _0186_
*828 _0187_
*829 _0188_
*830 _0189_
*831 _0190_
*832 _0191_
*833 _0192_
*834 _0193_
*835 _0194_
*836 _0195_
*837 _0196_
*838 _0197_
*839 _0198_
*840 _0199_
*841 _0200_
*842 _0201_
*843 _0202_
*844 _0203_
*845 _0204_
*846 _0205_
*847 _0206_
*848 _0207_
*849 _0208_
*850 _0209_
*851 _0210_
*852 _0211_
*853 _0212_
*854 _0213_
*855 _0214_
*856 _0215_
*857 _0216_
*858 _0217_
*859 _0218_
*860 _0219_
*861 _0220_
*862 _0221_
*863 _0222_
*864 _0223_
*865 _0224_
*866 _0225_
*867 _0226_
*868 _0227_
*869 _0228_
*870 _0229_
*871 _0230_
*872 _0231_
*873 _0232_
*874 _0233_
*875 _0234_
*876 _0235_
*877 _0236_
*878 _0237_
*879 _0238_
*880 _0239_
*881 _0240_
*882 _0241_
*883 _0242_
*884 _0243_
*885 _0244_
*886 _0245_
*887 _0246_
*888 _0247_
*889 _0248_
*890 _0249_
*891 _0250_
*892 _0251_
*893 _0252_
*894 _0253_
*895 _0254_
*896 _0255_
*897 _0256_
*898 _0257_
*899 _0258_
*900 _0259_
*901 _0260_
*902 _0261_
*903 _0262_
*904 _0263_
*905 _0264_
*906 _0265_
*907 _0266_
*908 _0267_
*909 _0268_
*910 _0269_
*911 _0270_
*912 _0271_
*913 _0272_
*914 _0273_
*915 _0274_
*916 _0275_
*917 _0276_
*918 _0277_
*919 _0278_
*920 _0279_
*921 _0280_
*922 _0281_
*923 _0282_
*924 _0283_
*925 _0284_
*926 _0285_
*927 _0286_
*928 _0287_
*929 _0288_
*930 _0289_
*931 _0290_
*932 _0291_
*933 _0292_
*934 _0293_
*935 _0294_
*936 _0295_
*937 _0296_
*938 _0297_
*939 _0298_
*940 _0299_
*941 _0300_
*942 _0301_
*943 _0302_
*944 _0303_
*945 _0304_
*946 _0305_
*947 _0306_
*948 _0307_
*949 _0308_
*950 _0309_
*951 _0310_
*952 _0311_
*953 _0312_
*954 _0313_
*955 _0314_
*956 _0315_
*957 _0316_
*958 _0317_
*959 _0318_
*960 _0319_
*961 _0320_
*962 _0321_
*963 _0322_
*964 _0323_
*965 _0324_
*966 _0325_
*967 _0326_
*968 _0327_
*969 _0328_
*970 _0329_
*971 _0330_
*972 _0331_
*973 _0332_
*974 _0333_
*975 _0334_
*976 _0335_
*977 _0336_
*978 _0337_
*979 _0338_
*980 _0339_
*981 _0340_
*982 _0341_
*983 _0342_
*984 _0343_
*985 _0344_
*986 _0345_
*987 _0346_
*988 _0347_
*989 _0348_
*990 _0349_
*991 _0350_
*992 _0351_
*993 _0352_
*994 _0353_
*995 _0354_
*996 _0355_
*997 _0356_
*998 _0357_
*999 _0358_
*1000 _0359_
*1001 _0360_
*1002 _0361_
*1003 _0362_
*1004 _0363_
*1005 _0364_
*1006 _0365_
*1007 _0366_
*1008 _0367_
*1009 _0368_
*1010 _0369_
*1011 _0370_
*1012 _0371_
*1013 _0372_
*1014 _0373_
*1015 _0374_
*1016 _0375_
*1017 _0376_
*1018 _0377_
*1019 _0378_
*1020 _0379_
*1021 _0380_
*1022 _0381_
*1023 _0382_
*1024 _0383_
*1025 _0384_
*1026 _0385_
*1027 _0386_
*1028 _0387_
*1029 _0388_
*1030 _0389_
*1031 _0390_
*1032 _0391_
*1033 _0392_
*1034 _0393_
*1035 _0394_
*1036 _0395_
*1037 _0396_
*1038 _0397_
*1039 _0398_
*1040 _0399_
*1041 _0400_
*1042 _0401_
*1043 _0402_
*1044 _0403_
*1045 _0404_
*1046 _0405_
*1047 _0406_
*1048 _0407_
*1049 _0408_
*1050 _0409_
*1051 _0410_
*1052 _0411_
*1053 _0412_
*1054 _0413_
*1055 _0414_
*1056 _0415_
*1057 _0416_
*1058 _0417_
*1059 _0418_
*1060 _0419_
*1061 _0420_
*1062 _0421_
*1063 _0422_
*1064 _0423_
*1065 _0424_
*1066 _0425_
*1067 _0426_
*1068 _0427_
*1069 _0428_
*1070 _0429_
*1071 _0430_
*1072 _0431_
*1073 _0432_
*1074 _0433_
*1075 _0434_
*1076 _0435_
*1077 _0436_
*1078 _0437_
*1079 _0438_
*1080 _0439_
*1081 _0440_
*1082 _0441_
*1083 _0442_
*1084 _0443_
*1085 _0444_
*1086 _0445_
*1087 _0446_
*1088 _0447_
*1089 _0448_
*1090 _0449_
*1091 _0450_
*1092 _0451_
*1093 _0452_
*1094 _0453_
*1095 _0454_
*1096 _0455_
*1097 _0456_
*1098 _0457_
*1099 _0458_
*1100 _0459_
*1101 _0460_
*1102 _0461_
*1103 _0462_
*1104 _0463_
*1105 _0464_
*1106 _0465_
*1107 _0466_
*1108 _0467_
*1109 _0468_
*1110 _0469_
*1111 _0470_
*1112 _0471_
*1113 _0472_
*1114 _0473_
*1115 _0474_
*1116 _0475_
*1117 _0476_
*1118 _0477_
*1119 _0478_
*1120 _0479_
*1121 _0480_
*1122 _0481_
*1123 _0482_
*1124 _0483_
*1125 _0484_
*1126 _0485_
*1127 _0486_
*1128 _0487_
*1129 _0488_
*1130 _0489_
*1131 _0490_
*1132 _0491_
*1133 _0492_
*1134 _0493_
*1135 _0494_
*1136 _0495_
*1137 _0496_
*1138 _0497_
*1139 _0498_
*1140 _0499_
*1141 _0500_
*1142 _0501_
*1143 _0502_
*1144 _0503_
*1145 _0504_
*1146 _0505_
*1147 _0506_
*1148 _0507_
*1149 _0508_
*1150 _0509_
*1151 _0510_
*1152 _0511_
*1153 _0512_
*1154 _0513_
*1155 _0514_
*1156 _0515_
*1157 _0516_
*1158 _0517_
*1159 _0518_
*1160 _0519_
*1161 _0520_
*1162 _0521_
*1163 _0522_
*1164 _0523_
*1165 _0524_
*1166 _0525_
*1167 _0526_
*1168 _0527_
*1169 _0528_
*1170 _0529_
*1171 _0530_
*1172 _0531_
*1173 _0532_
*1174 _0533_
*1175 _0534_
*1176 _0535_
*1177 _0536_
*1178 _0537_
*1179 _0538_
*1180 _0539_
*1181 _0540_
*1182 _0541_
*1183 _0542_
*1184 _0543_
*1185 _0544_
*1186 _0545_
*1187 _0546_
*1188 _0547_
*1189 _0548_
*1190 _0549_
*1191 _0550_
*1192 _0551_
*1193 _0552_
*1194 _0553_
*1195 _0554_
*1196 _0555_
*1197 _0556_
*1198 _0557_
*1199 _0558_
*1200 _0559_
*1201 _0560_
*1202 _0561_
*1203 _0562_
*1204 _0563_
*1205 _0564_
*1206 _0565_
*1207 _0566_
*1208 _0567_
*1209 _0568_
*1210 _0569_
*1211 _0570_
*1212 _0571_
*1213 _0572_
*1214 _0573_
*1215 _0574_
*1216 _0575_
*1217 _0576_
*1218 _0577_
*1219 _0578_
*1220 _0579_
*1221 _0580_
*1222 _0581_
*1223 _0582_
*1224 _0583_
*1225 _0584_
*1226 _0585_
*1227 _0586_
*1228 _0587_
*1229 _0588_
*1230 _0589_
*1231 _0590_
*1232 _0591_
*1233 _0592_
*1234 _0593_
*1235 _0594_
*1236 _0595_
*1237 _0596_
*1238 _0597_
*1239 _0598_
*1240 _0599_
*1241 _0600_
*1242 _0601_
*1243 _0602_
*1244 _0603_
*1245 _0604_
*1246 _0605_
*1247 _0606_
*1248 _0607_
*1249 _0608_
*1250 _0609_
*1251 _0610_
*1252 _0611_
*1253 _0612_
*1254 _0613_
*1255 _0614_
*1256 _0615_
*1257 _0616_
*1258 _0617_
*1259 _0618_
*1260 _0619_
*1261 _0620_
*1262 _0621_
*1263 _0622_
*1264 _0623_
*1265 _0624_
*1266 _0625_
*1267 _0626_
*1268 _0627_
*1269 _0628_
*1270 _0629_
*1271 _0630_
*1272 _0631_
*1273 _0632_
*1274 _0633_
*1275 _0634_
*1276 _0635_
*1277 _0636_
*1278 _0637_
*1279 _0638_
*1280 _0639_
*1281 _0640_
*1282 _0641_
*1283 _0642_
*1284 _0643_
*1285 _0644_
*1286 _0645_
*1287 _0646_
*1288 _0647_
*1289 _0648_
*1290 _0649_
*1291 _0650_
*1292 _0651_
*1293 _0652_
*1294 _0653_
*1295 _0654_
*1296 _0655_
*1297 _0656_
*1298 _0657_
*1299 _0658_
*1300 _0659_
*1301 _0660_
*1302 _0661_
*1303 _0662_
*1304 _0663_
*1305 _0664_
*1306 _0665_
*1307 _0666_
*1308 _0667_
*1309 _0668_
*1310 _0669_
*1311 _0670_
*1312 _0671_
*1313 _0672_
*1314 _0673_
*1315 _0674_
*1316 _0675_
*1317 _0676_
*1318 _0677_
*1319 _0678_
*1320 _0679_
*1321 _0680_
*1322 _0681_
*1323 _0682_
*1324 _0683_
*1325 _0684_
*1326 _0685_
*1327 _0686_
*1328 _0687_
*1329 _0688_
*1330 _0689_
*1331 _0690_
*1332 _0691_
*1333 _0692_
*1334 _0693_
*1335 _0694_
*1336 _0695_
*1337 _0696_
*1338 _0697_
*1339 _0698_
*1340 _0699_
*1341 _0700_
*1342 _0701_
*1343 _0702_
*1344 _0703_
*1345 _0704_
*1346 _0705_
*1347 _0706_
*1348 _0707_
*1349 _0708_
*1350 _0709_
*1351 _0710_
*1352 _0711_
*1353 _0712_
*1354 _0713_
*1355 _0714_
*1356 _0715_
*1357 _0716_
*1358 _0717_
*1359 _0718_
*1360 _0719_
*1361 _0720_
*1362 _0721_
*1363 _0722_
*1364 _0723_
*1365 _0724_
*1366 _0725_
*1367 _0726_
*1368 _0727_
*1369 _0728_
*1370 _0729_
*1371 _0730_
*1372 _0731_
*1373 _0732_
*1374 _0733_
*1375 _0734_
*1376 _0735_
*1377 _0736_
*1378 _0737_
*1379 _0738_
*1380 _0739_
*1381 _0740_
*1382 _0741_
*1383 _0742_
*1384 _0743_
*1385 _0744_
*1386 _0745_
*1387 _0746_
*1388 _0747_
*1389 _0748_
*1390 _0749_
*1391 _0750_
*1392 _0751_
*1393 _0752_
*1394 _0753_
*1395 _0754_
*1396 _0755_
*1397 _0756_
*1398 _0757_
*1399 _0758_
*1400 _0759_
*1401 _0760_
*1402 _0761_
*1403 _0762_
*1404 _0763_
*1405 _0764_
*1406 _0765_
*1407 _0766_
*1408 _0767_
*1409 _0768_
*1410 _0769_
*1411 _0770_
*1412 _0771_
*1413 _0772_
*1414 _0773_
*1415 _0774_
*1416 _0775_
*1417 _0776_
*1418 _0777_
*1419 _0778_
*1420 _0779_
*1421 _0780_
*1422 _0781_
*1423 _0782_
*1424 _0783_
*1425 _0784_
*1426 _0785_
*1427 _0786_
*1428 _0787_
*1429 _0788_
*1430 _0789_
*1431 _0790_
*1432 _0791_
*1433 _0792_
*1434 _0793_
*1435 _0794_
*1436 _0795_
*1437 _0796_
*1438 _0797_
*1439 _0798_
*1440 _0799_
*1441 _0800_
*1442 _0801_
*1443 _0802_
*1444 _0803_
*1445 _0804_
*1446 _0805_
*1447 _0806_
*1448 _0807_
*1449 _0808_
*1450 _0809_
*1451 _0810_
*1452 _0811_
*1453 _0812_
*1454 _0813_
*1455 _0814_
*1456 _0815_
*1457 _0816_
*1458 _0817_
*1459 _0818_
*1460 _0819_
*1461 _0820_
*1462 _0821_
*1463 _0822_
*1464 _0823_
*1465 _0824_
*1466 _0825_
*1467 _0826_
*1468 _0827_
*1469 _0828_
*1470 _0829_
*1471 _0830_
*1472 _0831_
*1473 _0832_
*1474 _0833_
*1475 _0834_
*1476 _0835_
*1477 _0836_
*1478 _0837_
*1479 _0838_
*1480 _0839_
*1481 _0840_
*1482 _0841_
*1483 _0842_
*1484 _0843_
*1485 _0844_
*1486 _0845_
*1487 _0846_
*1488 _0847_
*1489 _0848_
*1490 _0849_
*1491 _0850_
*1492 _0851_
*1493 _0852_
*1494 _0853_
*1495 _0854_
*1496 _0855_
*1497 _0856_
*1498 _0857_
*1499 _0858_
*1500 _0859_
*1501 _0860_
*1502 _0861_
*1503 _0862_
*1504 _0863_
*1505 _0864_
*1506 _0865_
*1507 _0866_
*1508 _0867_
*1509 _0868_
*1510 _0869_
*1511 _0870_
*1512 _0871_
*1513 _0872_
*1514 _0873_
*1515 _0874_
*1516 _0875_
*1517 _0876_
*1518 _0877_
*1519 _0878_
*1520 _0879_
*1521 _0880_
*1522 _0881_
*1523 _0882_
*1524 _0883_
*1525 _0884_
*1526 _0885_
*1527 _0886_
*1528 _0887_
*1529 _0888_
*1530 _0889_
*1531 _0890_
*1532 _0891_
*1533 _0892_
*1534 _0893_
*1535 _0894_
*1536 _0895_
*1537 _0896_
*1538 _0897_
*1539 _0898_
*1540 _0899_
*1541 _0900_
*1542 _0901_
*1543 _0902_
*1544 _0903_
*1545 _0904_
*1546 _0905_
*1547 _0906_
*1548 _0907_
*1549 _0908_
*1550 _0909_
*1551 _0910_
*1552 _0911_
*1553 _0912_
*1554 _0913_
*1555 _0914_
*1556 _0915_
*1557 _0916_
*1558 _0917_
*1559 _0918_
*1560 _0919_
*1561 _0920_
*1562 _0921_
*1563 _0922_
*1564 _0923_
*1565 _0924_
*1566 _0925_
*1567 _0926_
*1568 _0927_
*1569 _0928_
*1570 _0929_
*1571 _0930_
*1572 _0931_
*1573 _0932_
*1574 _0933_
*1575 _0934_
*1576 _0935_
*1577 _0936_
*1578 _0937_
*1579 _0938_
*1580 _0939_
*1581 _0940_
*1582 _0941_
*1583 _0942_
*1584 _0943_
*1585 _0944_
*1586 _0945_
*1587 _0946_
*1588 _0947_
*1589 _0948_
*1590 _0949_
*1591 _0950_
*1592 _0951_
*1593 _0952_
*1594 _0953_
*1595 _0954_
*1596 _0955_
*1597 _0956_
*1598 _0957_
*1599 _0958_
*1600 _0959_
*1601 _0960_
*1602 _0961_
*1603 _0962_
*1604 _0963_
*1605 _0964_
*1606 _0965_
*1607 _0966_
*1608 _0967_
*1609 _0968_
*1610 _0969_
*1611 _0970_
*1612 _0971_
*1613 _0972_
*1614 _0973_
*1615 _0974_
*1616 _0975_
*1617 _0976_
*1618 _0977_
*1619 _0978_
*1620 _0979_
*1621 _0980_
*1622 _0981_
*1623 _0982_
*1624 _0983_
*1625 _0984_
*1626 _0985_
*1627 _0986_
*1628 _0987_
*1629 _0988_
*1630 _0989_
*1631 _0990_
*1632 _0991_
*1633 _0992_
*1634 _0993_
*1635 _0994_
*1636 _0995_
*1637 _0996_
*1638 _0997_
*1639 _0998_
*1640 _0999_
*1641 _1000_
*1642 _1001_
*1643 _1002_
*1644 _1003_
*1645 _1004_
*1646 _1005_
*1647 _1006_
*1648 _1007_
*1649 _1008_
*1650 _1009_
*1651 _1010_
*1652 _1011_
*1653 _1012_
*1654 _1013_
*1655 _1014_
*1656 _1015_
*1657 _1016_
*1658 _1017_
*1659 _1018_
*1660 _1019_
*1661 _1020_
*1662 _1021_
*1663 _1022_
*1664 _1023_
*1665 _1024_
*1666 _1025_
*1667 _1026_
*1668 _1027_
*1669 _1028_
*1670 _1029_
*1671 _1030_
*1672 _1031_
*1673 _1032_
*1674 _1033_
*1675 _1034_
*1676 _1035_
*1677 _1036_
*1678 _1037_
*1679 _1038_
*1680 _1039_
*1681 _1040_
*1682 _1041_
*1683 _1042_
*1684 _1043_
*1685 _1044_
*1686 _1045_
*1687 _1046_
*1688 _1047_
*1689 _1048_
*1690 _1049_
*1691 _1050_
*1692 _1051_
*1693 _1052_
*1694 _1053_
*1695 _1054_
*1696 _1055_
*1697 _1056_
*1698 _1057_
*1699 _1058_
*1700 _1059_
*1701 _1060_
*1702 _1061_
*1703 _1062_
*1704 _1063_
*1705 _1064_
*1706 _1065_
*1707 _1066_
*1708 _1067_
*1709 _1068_
*1710 _1069_
*1711 _1070_
*1712 _1071_
*1713 _1072_
*1714 _1073_
*1715 _1074_
*1716 _1075_
*1717 _1076_
*1718 _1077_
*1719 _1078_
*1720 _1079_
*1721 _1080_
*1722 _1081_
*1723 _1082_
*1724 _1083_
*1725 _1084_
*1726 _1085_
*1727 _1086_
*1728 _1087_
*1729 _1088_
*1730 _1089_
*1731 _1090_
*1732 _1091_
*1733 _1092_
*1734 _1093_
*1735 _1094_
*1736 _1095_
*1737 _1096_
*1738 _1097_
*1739 _1098_
*1740 _1099_
*1741 _1100_
*1742 _1101_
*1743 _1102_
*1744 _1103_
*1745 _1104_
*1746 _1105_
*1747 _1106_
*1748 _1107_
*1749 _1108_
*1750 _1109_
*1751 _1110_
*1752 _1111_
*1753 _1112_
*1754 _1113_
*1755 _1114_
*1756 _1115_
*1757 _1116_
*1758 _1117_
*1759 _1118_
*1760 _1119_
*1761 _1120_
*1762 _1121_
*1763 _1122_
*1764 _1123_
*1765 _1124_
*1766 _1125_
*1767 _1126_
*1768 _1127_
*1769 _1128_
*1770 _1129_
*1771 _1130_
*1772 _1131_
*1773 _1132_
*1774 _1133_
*1775 _1134_
*1776 _1135_
*1777 _1136_
*1778 _1137_
*1779 _1138_
*1780 _1139_
*1781 _1140_
*1782 _1141_
*1783 _1142_
*1784 _1143_
*1785 _1144_
*1786 _1145_
*1787 _1146_
*1788 _1147_
*1789 _1148_
*1790 _1149_
*1791 _1150_
*1792 _1151_
*1793 _1152_
*1794 _1153_
*1795 _1154_
*1796 _1155_
*1797 _1156_
*1798 _1157_
*1799 _1158_
*1800 _1159_
*1801 _1160_
*1802 _1161_
*1803 _1162_
*1804 _1163_
*1805 _1164_
*1806 _1165_
*1807 _1166_
*1808 _1167_
*1809 _1168_
*1810 _1169_
*1811 _1170_
*1812 _1171_
*1813 _1172_
*1814 _1173_
*1815 _1174_
*1816 _1175_
*1817 _1176_
*1818 _1177_
*1819 _1178_
*1820 _1179_
*1821 _1180_
*1822 _1181_
*1823 _1182_
*1824 _1183_
*1825 _1184_
*1826 _1185_
*1827 _1186_
*1828 _1187_
*1829 _1188_
*1830 _1189_
*1831 _1190_
*1832 _1191_
*1833 _1192_
*1834 _1193_