*SPEF "ieee 1481-1999"
*DESIGN "wrapped_frequency_counter"
*DATE "11:11:11 Fri 11 11, 1111"
*VENDOR "OpenRCX"
*PROGRAM "Parallel Extraction"
*VERSION "1.0"
*DESIGN_FLOW "NAME_SCOPE LOCAL" "PIN_CAP NONE"
*DIVIDER /
*DELIMITER :
*BUS_DELIMITER []
*T_UNIT 1 NS
*C_UNIT 1 PF
*R_UNIT 1 OHM
*L_UNIT 1 HENRY

*NAME_MAP
*1 active
*2 io_in[0]
*3 io_in[10]
*4 io_in[11]
*5 io_in[12]
*6 io_in[13]
*7 io_in[14]
*8 io_in[15]
*9 io_in[16]
*10 io_in[17]
*11 io_in[18]
*12 io_in[19]
*13 io_in[1]
*14 io_in[20]
*15 io_in[21]
*16 io_in[22]
*17 io_in[23]
*18 io_in[24]
*19 io_in[25]
*20 io_in[26]
*21 io_in[27]
*22 io_in[28]
*23 io_in[29]
*24 io_in[2]
*25 io_in[30]
*26 io_in[31]
*27 io_in[32]
*28 io_in[33]
*29 io_in[34]
*30 io_in[35]
*31 io_in[36]
*32 io_in[37]
*33 io_in[3]
*34 io_in[4]
*35 io_in[5]
*36 io_in[6]
*37 io_in[7]
*38 io_in[8]
*39 io_in[9]
*40 io_oeb[0]
*41 io_oeb[10]
*42 io_oeb[11]
*43 io_oeb[12]
*44 io_oeb[13]
*45 io_oeb[14]
*46 io_oeb[15]
*47 io_oeb[16]
*48 io_oeb[17]
*49 io_oeb[18]
*50 io_oeb[19]
*51 io_oeb[1]
*52 io_oeb[20]
*53 io_oeb[21]
*54 io_oeb[22]
*55 io_oeb[23]
*56 io_oeb[24]
*57 io_oeb[25]
*58 io_oeb[26]
*59 io_oeb[27]
*60 io_oeb[28]
*61 io_oeb[29]
*62 io_oeb[2]
*63 io_oeb[30]
*64 io_oeb[31]
*65 io_oeb[32]
*66 io_oeb[33]
*67 io_oeb[34]
*68 io_oeb[35]
*69 io_oeb[36]
*70 io_oeb[37]
*71 io_oeb[3]
*72 io_oeb[4]
*73 io_oeb[5]
*74 io_oeb[6]
*75 io_oeb[7]
*76 io_oeb[8]
*77 io_oeb[9]
*78 io_out[0]
*79 io_out[10]
*80 io_out[11]
*81 io_out[12]
*82 io_out[13]
*83 io_out[14]
*84 io_out[15]
*85 io_out[16]
*86 io_out[17]
*87 io_out[18]
*88 io_out[19]
*89 io_out[1]
*90 io_out[20]
*91 io_out[21]
*92 io_out[22]
*93 io_out[23]
*94 io_out[24]
*95 io_out[25]
*96 io_out[26]
*97 io_out[27]
*98 io_out[28]
*99 io_out[29]
*100 io_out[2]
*101 io_out[30]
*102 io_out[31]
*103 io_out[32]
*104 io_out[33]
*105 io_out[34]
*106 io_out[35]
*107 io_out[36]
*108 io_out[37]
*109 io_out[3]
*110 io_out[4]
*111 io_out[5]
*112 io_out[6]
*113 io_out[7]
*114 io_out[8]
*115 io_out[9]
*116 la1_data_in[0]
*117 la1_data_in[10]
*118 la1_data_in[11]
*119 la1_data_in[12]
*120 la1_data_in[13]
*121 la1_data_in[14]
*122 la1_data_in[15]
*123 la1_data_in[16]
*124 la1_data_in[17]
*125 la1_data_in[18]
*126 la1_data_in[19]
*127 la1_data_in[1]
*128 la1_data_in[20]
*129 la1_data_in[21]
*130 la1_data_in[22]
*131 la1_data_in[23]
*132 la1_data_in[24]
*133 la1_data_in[25]
*134 la1_data_in[26]
*135 la1_data_in[27]
*136 la1_data_in[28]
*137 la1_data_in[29]
*138 la1_data_in[2]
*139 la1_data_in[30]
*140 la1_data_in[31]
*141 la1_data_in[3]
*142 la1_data_in[4]
*143 la1_data_in[5]
*144 la1_data_in[6]
*145 la1_data_in[7]
*146 la1_data_in[8]
*147 la1_data_in[9]
*148 la1_data_out[0]
*149 la1_data_out[10]
*150 la1_data_out[11]
*151 la1_data_out[12]
*152 la1_data_out[13]
*153 la1_data_out[14]
*154 la1_data_out[15]
*155 la1_data_out[16]
*156 la1_data_out[17]
*157 la1_data_out[18]
*158 la1_data_out[19]
*159 la1_data_out[1]
*160 la1_data_out[20]
*161 la1_data_out[21]
*162 la1_data_out[22]
*163 la1_data_out[23]
*164 la1_data_out[24]
*165 la1_data_out[25]
*166 la1_data_out[26]
*167 la1_data_out[27]
*168 la1_data_out[28]
*169 la1_data_out[29]
*170 la1_data_out[2]
*171 la1_data_out[30]
*172 la1_data_out[31]
*173 la1_data_out[3]
*174 la1_data_out[4]
*175 la1_data_out[5]
*176 la1_data_out[6]
*177 la1_data_out[7]
*178 la1_data_out[8]
*179 la1_data_out[9]
*180 la1_oenb[0]
*181 la1_oenb[10]
*182 la1_oenb[11]
*183 la1_oenb[12]
*184 la1_oenb[13]
*185 la1_oenb[14]
*186 la1_oenb[15]
*187 la1_oenb[16]
*188 la1_oenb[17]
*189 la1_oenb[18]
*190 la1_oenb[19]
*191 la1_oenb[1]
*192 la1_oenb[20]
*193 la1_oenb[21]
*194 la1_oenb[22]
*195 la1_oenb[23]
*196 la1_oenb[24]
*197 la1_oenb[25]
*198 la1_oenb[26]
*199 la1_oenb[27]
*200 la1_oenb[28]
*201 la1_oenb[29]
*202 la1_oenb[2]
*203 la1_oenb[30]
*204 la1_oenb[31]
*205 la1_oenb[3]
*206 la1_oenb[4]
*207 la1_oenb[5]
*208 la1_oenb[6]
*209 la1_oenb[7]
*210 la1_oenb[8]
*211 la1_oenb[9]
*214 wb_clk_i
*215 _0000_
*216 _0001_
*217 _0002_
*218 _0003_
*219 _0004_
*220 _0005_
*221 _0006_
*222 _0007_
*223 _0008_
*224 _0009_
*225 _0010_
*226 _0011_
*227 _0012_
*228 _0013_
*229 _0014_
*230 _0015_
*231 _0016_
*232 _0017_
*233 _0018_
*234 _0019_
*235 _0020_
*236 _0021_
*237 _0022_
*238 _0023_
*239 _0024_
*240 _0025_
*241 _0026_
*242 _0027_
*243 _0028_
*244 _0029_
*245 _0030_
*246 _0031_
*247 _0032_
*248 _0033_
*249 _0034_
*250 _0035_
*251 _0036_
*252 _0037_
*253 _0038_
*254 _0039_
*255 _0040_
*256 _0041_
*257 _0042_
*258 _0043_
*259 _0044_
*260 _0045_
*261 _0046_
*262 _0047_
*263 _0048_
*264 _0049_
*265 _0050_
*266 _0051_
*267 _0052_
*268 _0053_
*269 _0054_
*270 _0055_
*271 _0056_
*272 _0057_
*273 _0058_
*274 _0059_
*275 _0060_
*276 _0061_
*277 _0062_
*278 _0063_
*279 _0064_
*280 _0065_
*281 _0066_
*282 _0067_
*283 _0068_
*284 _0069_
*285 _0070_
*286 _0071_
*287 _0072_
*288 _0073_
*289 _0074_
*290 _0075_
*291 _0076_
*292 _0077_
*293 _0078_
*294 _0079_
*295 _0080_
*296 _0081_
*297 _0082_
*298 _0083_
*299 _0084_
*300 _0085_
*301 _0086_
*302 _0087_
*303 _0088_
*304 _0089_
*305 _0090_
*306 _0091_
*307 _0092_
*308 _0093_
*309 _0094_
*310 _0095_
*311 _0096_
*312 _0097_
*313 _0098_
*314 _0099_
*315 _0100_
*316 _0101_
*317 _0102_
*318 _0103_
*319 _0104_
*320 _0105_
*321 _0106_
*322 _0107_
*323 _0108_
*324 _0109_
*325 _0110_
*326 _0111_
*327 _0112_
*328 _0113_
*329 _0114_
*330 _0115_
*331 _0116_
*332 _0117_
*333 _0118_
*334 _0119_
*335 _0120_
*336 _0121_
*337 _0122_
*338 _0123_
*339 _0124_
*340 _0125_
*341 _0126_
*342 _0127_
*343 _0128_
*344 _0129_
*345 _0130_
*346 _0131_
*347 _0132_
*348 _0133_
*349 _0134_
*350 _0135_
*351 _0136_
*352 _0137_
*353 _0138_
*354 _0139_
*355 _0140_
*356 _0141_
*357 _0142_
*358 _0143_
*359 _0144_
*360 _0145_
*361 _0146_
*362 _0147_
*363 _0148_
*364 _0149_
*365 _0150_
*366 _0151_
*367 _0152_
*368 _0153_
*369 _0154_
*370 _0155_
*371 _0156_
*372 _0157_
*373 _0158_
*374 _0159_
*375 _0160_
*376 _0161_
*377 _0162_
*378 _0163_
*379 _0164_
*380 _0165_
*381 _0166_
*382 _0167_
*383 _0168_
*384 _0169_
*385 _0170_
*386 _0171_
*387 _0172_
*388 _0173_
*389 _0174_
*390 _0175_
*391 _0176_
*392 _0177_
*393 _0178_
*394 _0179_
*395 _0180_
*396 _0181_
*397 _0182_
*398 _0183_
*399 _0184_
*400 _0185_
*401 _0186_
*402 _0187_
*403 _0188_
*404 _0189_
*405 _0190_
*406 _0191_
*407 _0192_
*408 _0193_
*409 _0194_
*410 _0195_
*411 _0196_
*412 _0197_
*413 _0198_
*414 _0199_
*415 _0200_
*416 _0201_
*417 _0202_
*418 _0203_
*419 _0204_
*420 _0205_
*421 _0206_
*422 _0207_
*423 _0208_
*424 _0209_
*425 _0210_
*426 _0211_
*427 _0212_
*428 _0213_
*429 _0214_
*430 _0215_
*431 _0216_
*432 _0217_
*433 _0218_
*434 _0219_
*435 _0220_
*436 _0221_
*437 _0222_
*438 _0223_
*439 _0224_
*440 _0225_
*441 _0226_
*442 _0227_
*443 _0228_
*444 _0229_
*445 _0230_
*446 _0231_
*447 _0232_
*448 _0233_
*449 _0234_
*450 _0235_
*451 _0236_
*452 _0237_
*453 _0238_
*454 _0239_
*455 _0240_
*456 _0241_
*457 _0242_
*458 _0243_
*459 _0244_
*460 _0245_
*461 _0246_
*462 _0247_
*463 _0248_
*464 _0249_
*465 _0250_
*466 _0251_
*467 _0252_
*468 _0253_
*469 _0254_
*470 _0255_
*471 _0256_
*472 _0257_
*473 _0258_
*474 _0259_
*475 _0260_
*476 _0261_
*477 _0262_
*478 _0263_
*479 _0264_
*480 _0265_
*481 _0266_
*482 _0267_
*483 _0268_
*484 _0269_
*485 _0270_
*486 _0271_
*487 _0272_
*488 _0273_
*489 _0274_
*490 _0275_
*491 _0276_
*492 _0277_
*493 _0278_
*494 _0279_
*495 _0280_
*496 _0281_
*497 _0282_
*498 _0283_
*499 _0284_
*500 _0285_
*501 _0286_
*502 _0287_
*503 _0288_
*504 _0289_
*505 _0290_
*506 _0291_
*507 _0292_
*508 _0293_
*509 _0294_
*510 _0295_
*511 _0296_
*512 _0297_
*513 _0298_
*514 _0299_
*515 _0300_
*516 _0301_
*517 _0302_
*518 _0303_
*519 _0304_
*520 _0305_
*521 _0306_
*522 _0307_
*523 _0308_
*524 _0309_
*525 _0310_
*526 _0311_
*527 _0312_
*528 _0313_
*529 _0314_
*530 _0315_
*531 _0316_
*532 _0317_
*533 _0318_
*534 _0319_
*535 _0320_
*536 _0321_
*537 _0322_
*538 _0323_
*539 _0324_
*540 _0325_
*541 _0326_
*542 _0327_
*543 _0328_
*544 _0329_
*545 _0330_
*546 _0331_
*547 _0332_
*548 _0333_
*549 _0334_
*550 _0335_
*551 _0336_
*552 _0337_
*553 _0338_
*554 _0339_
*555 _0340_
*556 _0341_
*557 _0342_
*558 _0343_
*559 _0344_
*560 _0345_
*561 _0346_
*562 _0347_
*563 _0348_
*564 _0349_
*565 _0350_
*566 _0351_
*567 _0352_
*568 _0353_
*569 _0354_
*570 _0355_
*571 _0356_
*572 _0357_
*573 _0358_
*574 _0359_
*575 _0360_
*576 _0361_
*577 _0362_
*578 _0363_
*579 _0364_
*580 _0365_
*581 _0366_
*582 _0367_
*583 _0368_
*584 _0369_
*585 _0370_
*586 _0371_
*587 _0372_
*588 _0373_
*589 _0374_
*590 _0375_
*591 _0376_
*592 _0377_
*593 _0378_
*594 _0379_
*595 _0380_
*596 _0381_
*597 _0382_
*598 _0383_
*599 _0384_
*600 _0385_
*601 _0386_
*602 _0387_
*603 _0388_
*604 _0389_
*605 _0390_
*606 _0391_
*607 _0392_
*608 _0393_
*609 _0394_
*610 _0395_
*611 _0396_
*612 _0397_
*613 _0398_
*614 _0399_
*615 _0400_
*616 _0401_
*617 _0402_
*618 _0403_
*619 _0404_
*620 _0405_
*621 _0406_
*622 _0407_
*623 _0408_
*624 _0409_
*625 _0410_
*626 _0411_
*627 _0412_
*628 _0413_
*629 _0414_
*630 _0415_
*631 _0416_
*632 _0417_
*633 _0418_
*634 _0419_
*635 _0420_
*636 _0421_
*637 _0422_
*638 _0423_
*639 _0424_
*640 _0425_
*641 _0426_
*642 _0427_
*643 _0428_
*644 _0429_
*645 _0430_
*646 _0431_
*647 _0432_
*648 _0433_
*649 _0434_
*650 _0435_
*651 _0436_
*652 _0437_
*653 _0438_
*654 _0439_
*655 _0440_
*656 _0441_
*657 _0442_
*658 _0443_
*659 _0444_
*660 _0445_
*661 _0446_
*662 _0447_
*663 _0448_
*664 _0449_
*665 _0450_
*666 _0451_
*667 _0452_
*668 _0453_
*669 _0454_
*670 _0455_
*671 _0456_
*672 _0457_
*673 _0458_
*674 _0459_
*675 _0460_
*676 _0461_
*677 _0462_
*678 _0463_
*679 _0464_
*680 _0465_
*681 _0466_
*682 _0467_
*683 _0468_
*684 _0469_
*685 _0470_
*686 _0471_
*687 _0472_
*688 _0473_
*689 _0474_
*690 _0475_
*691 _0476_
*692 _0477_
*693 _0478_
*694 _0479_
*695 _0480_
*696 _0481_
*697 _0482_
*698 _0483_
*699 _0484_
*700 _0485_
*701 _0486_
*702 _0487_
*703 _0488_
*704 _0489_
*705 _0490_
*706 _0491_
*707 _0492_
*708 _0493_
*709 _0494_
*710 _0495_
*711 _0496_
*712 _0497_
*713 _0498_
*714 _0499_
*715 _0500_
*716 _0501_
*717 _0502_
*718 _0503_
*719 _0504_
*720 _0505_
*721 _0506_
*722 _0507_
*723 _0508_
*724 _0509_
*725 _0510_
*726 _0511_
*727 _0512_
*728 _0513_
*729 _0514_
*730 _0515_
*731 _0516_
*732 _0517_
*733 _0518_
*734 _0519_
*735 _0520_
*736 _0521_
*737 _0522_
*738 _0523_
*739 _0524_
*740 _0525_
*741 _0526_
*742 _0527_
*743 _0528_
*744 _0529_
*745 _0530_
*746 _0531_
*747 _0532_
*748 _0533_
*749 _0534_
*750 _0535_
*751 _0536_
*752 _0537_
*753 _0538_
*754 _0539_
*755 _0540_
*756 _0541_
*757 _0542_
*758 _0543_
*759 _0544_
*760 _0545_
*761 _0546_
*762 _0547_
*763 _0548_
*764 _0549_
*765 _0550_
*766 _0551_
*767 _0552_
*768 _0553_
*769 _0554_
*770 _0555_
*771 _0556_
*772 _0557_
*773 _0558_
*774 _0559_
*775 _0560_
*776 _0561_
*777 _0562_
*778 _0563_
*779 _0564_
*780 _0565_
*781 _0566_
*782 _0567_
*783 _0568_
*784 _0569_
*785 _0570_
*786 _0571_
*787 _0572_
*788 _0573_
*789 _0574_
*790 _0575_
*791 _0576_
*792 _0577_
*793 _0578_
*794 _0579_
*795 _0580_
*796 _0581_
*797 _0582_
*798 _0583_
*799 _0584_
*800 _0585_
*801 _0586_
*802 _0587_
*803 clknet_0_wb_clk_i
*804 clknet_1_0_0_wb_clk_i
*805 clknet_1_1_0_wb_clk_i
*806 clknet_2_0_0_wb_clk_i
*807 clknet_2_1_0_wb_clk_i
*808 clknet_2_2_0_wb_clk_i
*809 clknet_2_3_0_wb_clk_i
*810 frequency_counter_0\.clk_counter\[0\]
*811 frequency_counter_0\.clk_counter\[10\]
*812 frequency_counter_0\.clk_counter\[11\]
*813 frequency_counter_0\.clk_counter\[1\]
*814 frequency_counter_0\.clk_counter\[2\]
*815 frequency_counter_0\.clk_counter\[3\]
*816 frequency_counter_0\.clk_counter\[4\]
*817 frequency_counter_0\.clk_counter\[5\]
*818 frequency_counter_0\.clk_counter\[6\]
*819 frequency_counter_0\.clk_counter\[7\]
*820 frequency_counter_0\.clk_counter\[8\]
*821 frequency_counter_0\.clk_counter\[9\]
*822 frequency_counter_0\.digit
*823 frequency_counter_0\.edge_counter\[0\]
*824 frequency_counter_0\.edge_counter\[1\]
*825 frequency_counter_0\.edge_counter\[2\]
*826 frequency_counter_0\.edge_counter\[3\]
*827 frequency_counter_0\.edge_counter\[4\]
*828 frequency_counter_0\.edge_counter\[5\]
*829 frequency_counter_0\.edge_counter\[6\]
*830 frequency_counter_0\.edge_detect0\.q0
*831 frequency_counter_0\.edge_detect0\.q1
*832 frequency_counter_0\.edge_detect0\.q2
*833 frequency_counter_0\.segments\[0\]
*834 frequency_counter_0\.segments\[1\]
*835 frequency_counter_0\.segments\[2\]
*836 frequency_counter_0\.segments\[3\]
*837 frequency_counter_0\.segments\[4\]
*838 frequency_counter_0\.segments\[5\]
*839 frequency_counter_0\.segments\[6\]
*840 frequency_counter_0\.seven_segment0\.load
*841 frequency_counter_0\.seven_segment0\.ten_count\[0\]
*842 frequency_counter_0\.seven_segment0\.ten_count\[1\]
*843 frequency_counter_0\.seven_segment0\.ten_count\[2\]
*844 frequency_counter_0\.seven_segment0\.ten_count\[3\]
*845 frequency_counter_0\.seven_segment0\.ten_count_reg\[0\]
*846 frequency_counter_0\.seven_segment0\.ten_count_reg\[1\]
*847 frequency_counter_0\.seven_segment0\.ten_count_reg\[2\]
*848 frequency_counter_0\.seven_segment0\.ten_count_reg\[3\]
*849 frequency_counter_0\.seven_segment0\.unit_count\[0\]
*850 frequency_counter_0\.seven_segment0\.unit_count\[1\]
*851 frequency_counter_0\.seven_segment0\.unit_count\[2\]
*852 frequency_counter_0\.seven_segment0\.unit_count\[3\]
*853 frequency_counter_0\.seven_segment0\.unit_count_reg\[0\]
*854 frequency_counter_0\.seven_segment0\.unit_count_reg\[1\]
*855 frequency_counter_0\.seven_segment0\.unit_count_reg\[2\]
*856 frequency_counter_0\.seven_segment0\.unit_count_reg\[3\]
*857 frequency_counter_0\.state\[0\]
*858 frequency_counter_0\.state\[1\]
*859 frequency_counter_0\.state\[2\]
*860 frequency_counter_0\.update_period\[0\]
*861 frequency_counter_0\.update_period\[10\]
*862 frequency_counter_0\.update_period\[11\]
*863 frequency_counter_0\.update_period\[1\]
*864 frequency_counter_0\.update_period\[2\]
*865 frequency_counter_0\.update_period\[3\]
*866 frequency_counter_0\.update_period\[4\]
*867 frequency_counter_0\.update_period\[5\]
*868 frequency_counter_0\.update_period\[6\]
*869 frequency_counter_0\.update_period\[7\]
*870 frequency_counter_0\.update_period\[8\]
*871 frequency_counter_0\.update_period\[9\]
*872 net1
*873 net10
*874 net11
*875 net12
*876 net13
*877 net14
*878 net15
*879 net16
*880 net17
*881 net18
*882 net2
*883 net3
*884 net4
*885 net5
*886 net6
*887 net7
*888 net8
*889 net9
*890 ANTENNA_0
*891 FILLER_0_106
*892 FILLER_0_134
*893 FILLER_0_141
*894 FILLER_0_164
*895 FILLER_0_190
*896 FILLER_0_200
*897 FILLER_0_208
*898 FILLER_0_219
*899 FILLER_0_223
*900 FILLER_0_225
*901 FILLER_0_24
*902 FILLER_0_248
*903 FILLER_0_253
*904 FILLER_0_276
*905 FILLER_0_284
*906 FILLER_0_291
*907 FILLER_0_50
*908 FILLER_0_60
*909 FILLER_0_64
*910 FILLER_0_69
*911 FILLER_0_76
*912 FILLER_10_109
*913 FILLER_10_121
*914 FILLER_10_133
*915 FILLER_10_139
*916 FILLER_10_141
*917 FILLER_10_153
*918 FILLER_10_165
*919 FILLER_10_177
*920 FILLER_10_189
*921 FILLER_10_195
*922 FILLER_10_197
*923 FILLER_10_209
*924 FILLER_10_221
*925 FILLER_10_233
*926 FILLER_10_24
*927 FILLER_10_245
*928 FILLER_10_251
*929 FILLER_10_253
*930 FILLER_10_265
*931 FILLER_10_277
*932 FILLER_10_285
*933 FILLER_10_29
*934 FILLER_10_290
*935 FILLER_10_298
*936 FILLER_10_41
*937 FILLER_10_53
*938 FILLER_10_65
*939 FILLER_10_77
*940 FILLER_10_83
*941 FILLER_10_85
*942 FILLER_10_97
*943 FILLER_11_105
*944 FILLER_11_111
*945 FILLER_11_113
*946 FILLER_11_125
*947 FILLER_11_137
*948 FILLER_11_149
*949 FILLER_11_161
*950 FILLER_11_167
*951 FILLER_11_169
*952 FILLER_11_181
*953 FILLER_11_193
*954 FILLER_11_205
*955 FILLER_11_217
*956 FILLER_11_223
*957 FILLER_11_225
*958 FILLER_11_237
*959 FILLER_11_249
*960 FILLER_11_261
*961 FILLER_11_27
*962 FILLER_11_273
*963 FILLER_11_279
*964 FILLER_11_281
*965 FILLER_11_289
*966 FILLER_11_293
*967 FILLER_11_3
*968 FILLER_11_39
*969 FILLER_11_51
*970 FILLER_11_55
*971 FILLER_11_57
*972 FILLER_11_69
*973 FILLER_11_81
*974 FILLER_11_93
*975 FILLER_12_109
*976 FILLER_12_12
*977 FILLER_12_121
*978 FILLER_12_133
*979 FILLER_12_139
*980 FILLER_12_141
*981 FILLER_12_153
*982 FILLER_12_165
*983 FILLER_12_177
*984 FILLER_12_189
*985 FILLER_12_19
*986 FILLER_12_195
*987 FILLER_12_197
*988 FILLER_12_209
*989 FILLER_12_221
*990 FILLER_12_233
*991 FILLER_12_245
*992 FILLER_12_251
*993 FILLER_12_253
*994 FILLER_12_265
*995 FILLER_12_27
*996 FILLER_12_273
*997 FILLER_12_29
*998 FILLER_12_295
*999 FILLER_12_3
*1000 FILLER_12_41
*1001 FILLER_12_53
*1002 FILLER_12_65
*1003 FILLER_12_77
*1004 FILLER_12_83
*1005 FILLER_12_85
*1006 FILLER_12_97
*1007 FILLER_13_105
*1008 FILLER_13_111
*1009 FILLER_13_113
*1010 FILLER_13_125
*1011 FILLER_13_137
*1012 FILLER_13_149
*1013 FILLER_13_15
*1014 FILLER_13_161
*1015 FILLER_13_167
*1016 FILLER_13_169
*1017 FILLER_13_181
*1018 FILLER_13_193
*1019 FILLER_13_205
*1020 FILLER_13_217
*1021 FILLER_13_223
*1022 FILLER_13_225
*1023 FILLER_13_237
*1024 FILLER_13_249
*1025 FILLER_13_261
*1026 FILLER_13_27
*1027 FILLER_13_273
*1028 FILLER_13_279
*1029 FILLER_13_281
*1030 FILLER_13_288
*1031 FILLER_13_295
*1032 FILLER_13_3
*1033 FILLER_13_39
*1034 FILLER_13_51
*1035 FILLER_13_55
*1036 FILLER_13_57
*1037 FILLER_13_69
*1038 FILLER_13_8
*1039 FILLER_13_81
*1040 FILLER_13_93
*1041 FILLER_14_109
*1042 FILLER_14_121
*1043 FILLER_14_133
*1044 FILLER_14_139
*1045 FILLER_14_141
*1046 FILLER_14_153
*1047 FILLER_14_165
*1048 FILLER_14_177
*1049 FILLER_14_189
*1050 FILLER_14_195
*1051 FILLER_14_197
*1052 FILLER_14_209
*1053 FILLER_14_221
*1054 FILLER_14_233
*1055 FILLER_14_24
*1056 FILLER_14_245
*1057 FILLER_14_251
*1058 FILLER_14_253
*1059 FILLER_14_265
*1060 FILLER_14_270
*1061 FILLER_14_29
*1062 FILLER_14_295
*1063 FILLER_14_41
*1064 FILLER_14_53
*1065 FILLER_14_65
*1066 FILLER_14_77
*1067 FILLER_14_83
*1068 FILLER_14_85
*1069 FILLER_14_97
*1070 FILLER_15_105
*1071 FILLER_15_111
*1072 FILLER_15_113
*1073 FILLER_15_125
*1074 FILLER_15_137
*1075 FILLER_15_149
*1076 FILLER_15_15
*1077 FILLER_15_161
*1078 FILLER_15_167
*1079 FILLER_15_169
*1080 FILLER_15_181
*1081 FILLER_15_193
*1082 FILLER_15_205
*1083 FILLER_15_217
*1084 FILLER_15_223
*1085 FILLER_15_225
*1086 FILLER_15_237
*1087 FILLER_15_249
*1088 FILLER_15_261
*1089 FILLER_15_265
*1090 FILLER_15_269
*1091 FILLER_15_27
*1092 FILLER_15_276
*1093 FILLER_15_281
*1094 FILLER_15_285
*1095 FILLER_15_292
*1096 FILLER_15_298
*1097 FILLER_15_3
*1098 FILLER_15_39
*1099 FILLER_15_51
*1100 FILLER_15_55
*1101 FILLER_15_57
*1102 FILLER_15_69
*1103 FILLER_15_8
*1104 FILLER_15_81
*1105 FILLER_15_93
*1106 FILLER_16_109
*1107 FILLER_16_121
*1108 FILLER_16_133
*1109 FILLER_16_139
*1110 FILLER_16_141
*1111 FILLER_16_15
*1112 FILLER_16_153
*1113 FILLER_16_165
*1114 FILLER_16_177
*1115 FILLER_16_189
*1116 FILLER_16_195
*1117 FILLER_16_197
*1118 FILLER_16_209
*1119 FILLER_16_22
*1120 FILLER_16_221
*1121 FILLER_16_233
*1122 FILLER_16_245
*1123 FILLER_16_251
*1124 FILLER_16_253
*1125 FILLER_16_265
*1126 FILLER_16_273
*1127 FILLER_16_29
*1128 FILLER_16_295
*1129 FILLER_16_3
*1130 FILLER_16_41
*1131 FILLER_16_53
*1132 FILLER_16_65
*1133 FILLER_16_77
*1134 FILLER_16_8
*1135 FILLER_16_83
*1136 FILLER_16_85
*1137 FILLER_16_97
*1138 FILLER_17_105
*1139 FILLER_17_111
*1140 FILLER_17_113
*1141 FILLER_17_125
*1142 FILLER_17_137
*1143 FILLER_17_14
*1144 FILLER_17_149
*1145 FILLER_17_161
*1146 FILLER_17_167
*1147 FILLER_17_169
*1148 FILLER_17_181
*1149 FILLER_17_193
*1150 FILLER_17_205
*1151 FILLER_17_217
*1152 FILLER_17_223
*1153 FILLER_17_225
*1154 FILLER_17_237
*1155 FILLER_17_249
*1156 FILLER_17_261
*1157 FILLER_17_265
*1158 FILLER_17_269
*1159 FILLER_17_276
*1160 FILLER_17_281
*1161 FILLER_17_285
*1162 FILLER_17_292
*1163 FILLER_17_298
*1164 FILLER_17_3
*1165 FILLER_17_36
*1166 FILLER_17_48
*1167 FILLER_17_57
*1168 FILLER_17_69
*1169 FILLER_17_8
*1170 FILLER_17_81
*1171 FILLER_17_93
*1172 FILLER_18_109
*1173 FILLER_18_121
*1174 FILLER_18_133
*1175 FILLER_18_139
*1176 FILLER_18_141
*1177 FILLER_18_153
*1178 FILLER_18_165
*1179 FILLER_18_177
*1180 FILLER_18_189
*1181 FILLER_18_195
*1182 FILLER_18_197
*1183 FILLER_18_209
*1184 FILLER_18_221
*1185 FILLER_18_233
*1186 FILLER_18_24
*1187 FILLER_18_245
*1188 FILLER_18_251
*1189 FILLER_18_253
*1190 FILLER_18_265
*1191 FILLER_18_270
*1192 FILLER_18_295
*1193 FILLER_18_32
*1194 FILLER_18_44
*1195 FILLER_18_56
*1196 FILLER_18_68
*1197 FILLER_18_80
*1198 FILLER_18_85
*1199 FILLER_18_97
*1200 FILLER_19_105
*1201 FILLER_19_111
*1202 FILLER_19_113
*1203 FILLER_19_125
*1204 FILLER_19_137
*1205 FILLER_19_14
*1206 FILLER_19_149
*1207 FILLER_19_161
*1208 FILLER_19_167
*1209 FILLER_19_169
*1210 FILLER_19_181
*1211 FILLER_19_193
*1212 FILLER_19_205
*1213 FILLER_19_21
*1214 FILLER_19_217
*1215 FILLER_19_223
*1216 FILLER_19_225
*1217 FILLER_19_237
*1218 FILLER_19_259
*1219 FILLER_19_271
*1220 FILLER_19_276
*1221 FILLER_19_281
*1222 FILLER_19_288
*1223 FILLER_19_295
*1224 FILLER_19_3
*1225 FILLER_19_33
*1226 FILLER_19_45
*1227 FILLER_19_53
*1228 FILLER_19_57
*1229 FILLER_19_69
*1230 FILLER_19_81
*1231 FILLER_19_93
*1232 FILLER_1_101
*1233 FILLER_1_108
*1234 FILLER_1_113
*1235 FILLER_1_117
*1236 FILLER_1_139
*1237 FILLER_1_164
*1238 FILLER_1_172
*1239 FILLER_1_180
*1240 FILLER_1_185
*1241 FILLER_1_210
*1242 FILLER_1_216
*1243 FILLER_1_220
*1244 FILLER_1_225
*1245 FILLER_1_229
*1246 FILLER_1_251
*1247 FILLER_1_27
*1248 FILLER_1_276
*1249 FILLER_1_284
*1250 FILLER_1_291
*1251 FILLER_1_3
*1252 FILLER_1_52
*1253 FILLER_1_57
*1254 FILLER_1_84
*1255 FILLER_1_90
*1256 FILLER_1_94
*1257 FILLER_20_109
*1258 FILLER_20_121
*1259 FILLER_20_133
*1260 FILLER_20_139
*1261 FILLER_20_141
*1262 FILLER_20_153
*1263 FILLER_20_165
*1264 FILLER_20_177
*1265 FILLER_20_189
*1266 FILLER_20_195
*1267 FILLER_20_197
*1268 FILLER_20_209
*1269 FILLER_20_233
*1270 FILLER_20_24
*1271 FILLER_20_245
*1272 FILLER_20_251
*1273 FILLER_20_253
*1274 FILLER_20_265
*1275 FILLER_20_273
*1276 FILLER_20_29
*1277 FILLER_20_295
*1278 FILLER_20_41
*1279 FILLER_20_53
*1280 FILLER_20_65
*1281 FILLER_20_77
*1282 FILLER_20_83
*1283 FILLER_20_85
*1284 FILLER_20_97
*1285 FILLER_21_105
*1286 FILLER_21_111
*1287 FILLER_21_113
*1288 FILLER_21_125
*1289 FILLER_21_137
*1290 FILLER_21_14
*1291 FILLER_21_149
*1292 FILLER_21_161
*1293 FILLER_21_167
*1294 FILLER_21_169
*1295 FILLER_21_18
*1296 FILLER_21_181
*1297 FILLER_21_193
*1298 FILLER_21_201
*1299 FILLER_21_205
*1300 FILLER_21_212
*1301 FILLER_21_219
*1302 FILLER_21_223
*1303 FILLER_21_228
*1304 FILLER_21_234
*1305 FILLER_21_238
*1306 FILLER_21_245
*1307 FILLER_21_257
*1308 FILLER_21_269
*1309 FILLER_21_276
*1310 FILLER_21_281
*1311 FILLER_21_285
*1312 FILLER_21_289
*1313 FILLER_21_297
*1314 FILLER_21_3
*1315 FILLER_21_30
*1316 FILLER_21_42
*1317 FILLER_21_54
*1318 FILLER_21_57
*1319 FILLER_21_69
*1320 FILLER_21_8
*1321 FILLER_21_81
*1322 FILLER_21_93
*1323 FILLER_22_109
*1324 FILLER_22_121
*1325 FILLER_22_133
*1326 FILLER_22_139
*1327 FILLER_22_141
*1328 FILLER_22_169
*1329 FILLER_22_181
*1330 FILLER_22_193
*1331 FILLER_22_197
*1332 FILLER_22_206
*1333 FILLER_22_231
*1334 FILLER_22_24
*1335 FILLER_22_243
*1336 FILLER_22_251
*1337 FILLER_22_256
*1338 FILLER_22_263
*1339 FILLER_22_270
*1340 FILLER_22_295
*1341 FILLER_22_32
*1342 FILLER_22_44
*1343 FILLER_22_56
*1344 FILLER_22_68
*1345 FILLER_22_80
*1346 FILLER_22_85
*1347 FILLER_22_97
*1348 FILLER_23_105
*1349 FILLER_23_111
*1350 FILLER_23_113
*1351 FILLER_23_119
*1352 FILLER_23_12
*1353 FILLER_23_129
*1354 FILLER_23_149
*1355 FILLER_23_16
*1356 FILLER_23_164
*1357 FILLER_23_178
*1358 FILLER_23_190
*1359 FILLER_23_198
*1360 FILLER_23_204
*1361 FILLER_23_211
*1362 FILLER_23_220
*1363 FILLER_23_225
*1364 FILLER_23_229
*1365 FILLER_23_23
*1366 FILLER_23_238
*1367 FILLER_23_247
*1368 FILLER_23_276
*1369 FILLER_23_284
*1370 FILLER_23_288
*1371 FILLER_23_292
*1372 FILLER_23_298
*1373 FILLER_23_3
*1374 FILLER_23_35
*1375 FILLER_23_47
*1376 FILLER_23_55
*1377 FILLER_23_57
*1378 FILLER_23_69
*1379 FILLER_23_8
*1380 FILLER_23_81
*1381 FILLER_23_93
*1382 FILLER_24_109
*1383 FILLER_24_121
*1384 FILLER_24_127
*1385 FILLER_24_131
*1386 FILLER_24_139
*1387 FILLER_24_141
*1388 FILLER_24_150
*1389 FILLER_24_158
*1390 FILLER_24_175
*1391 FILLER_24_187
*1392 FILLER_24_195
*1393 FILLER_24_197
*1394 FILLER_24_206
*1395 FILLER_24_231
*1396 FILLER_24_235
*1397 FILLER_24_24
*1398 FILLER_24_246
*1399 FILLER_24_258
*1400 FILLER_24_265
*1401 FILLER_24_273
*1402 FILLER_24_29
*1403 FILLER_24_295
*1404 FILLER_24_41
*1405 FILLER_24_53
*1406 FILLER_24_65
*1407 FILLER_24_77
*1408 FILLER_24_83
*1409 FILLER_24_85
*1410 FILLER_24_97
*1411 FILLER_25_105
*1412 FILLER_25_111
*1413 FILLER_25_113
*1414 FILLER_25_125
*1415 FILLER_25_130
*1416 FILLER_25_137
*1417 FILLER_25_15
*1418 FILLER_25_157
*1419 FILLER_25_164
*1420 FILLER_25_172
*1421 FILLER_25_184
*1422 FILLER_25_190
*1423 FILLER_25_194
*1424 FILLER_25_201
*1425 FILLER_25_208
*1426 FILLER_25_22
*1427 FILLER_25_220
*1428 FILLER_25_233
*1429 FILLER_25_247
*1430 FILLER_25_258
*1431 FILLER_25_265
*1432 FILLER_25_272
*1433 FILLER_25_281
*1434 FILLER_25_287
*1435 FILLER_25_294
*1436 FILLER_25_298
*1437 FILLER_25_3
*1438 FILLER_25_34
*1439 FILLER_25_46
*1440 FILLER_25_54
*1441 FILLER_25_57
*1442 FILLER_25_69
*1443 FILLER_25_8
*1444 FILLER_25_81
*1445 FILLER_25_93
*1446 FILLER_26_109
*1447 FILLER_26_11
*1448 FILLER_26_117
*1449 FILLER_26_136
*1450 FILLER_26_146
*1451 FILLER_26_152
*1452 FILLER_26_156
*1453 FILLER_26_173
*1454 FILLER_26_18
*1455 FILLER_26_180
*1456 FILLER_26_187
*1457 FILLER_26_195
*1458 FILLER_26_201
*1459 FILLER_26_208
*1460 FILLER_26_214
*1461 FILLER_26_220
*1462 FILLER_26_231
*1463 FILLER_26_243
*1464 FILLER_26_251
*1465 FILLER_26_258
*1466 FILLER_26_26
*1467 FILLER_26_265
*1468 FILLER_26_273
*1469 FILLER_26_29
*1470 FILLER_26_295
*1471 FILLER_26_3
*1472 FILLER_26_41
*1473 FILLER_26_53
*1474 FILLER_26_65
*1475 FILLER_26_7
*1476 FILLER_26_77
*1477 FILLER_26_83
*1478 FILLER_26_85
*1479 FILLER_26_97
*1480 FILLER_27_105
*1481 FILLER_27_111
*1482 FILLER_27_113
*1483 FILLER_27_118
*1484 FILLER_27_125
*1485 FILLER_27_132
*1486 FILLER_27_144
*1487 FILLER_27_156
*1488 FILLER_27_160
*1489 FILLER_27_164
*1490 FILLER_27_185
*1491 FILLER_27_193
*1492 FILLER_27_199
*1493 FILLER_27_219
*1494 FILLER_27_223
*1495 FILLER_27_225
*1496 FILLER_27_239
*1497 FILLER_27_248
*1498 FILLER_27_26
*1499 FILLER_27_262
*1500 FILLER_27_270
*1501 FILLER_27_276
*1502 FILLER_27_284
*1503 FILLER_27_293
*1504 FILLER_27_3
*1505 FILLER_27_38
*1506 FILLER_27_50
*1507 FILLER_27_57
*1508 FILLER_27_69
*1509 FILLER_27_81
*1510 FILLER_27_93
*1511 FILLER_28_105
*1512 FILLER_28_110
*1513 FILLER_28_130
*1514 FILLER_28_138
*1515 FILLER_28_141
*1516 FILLER_28_145
*1517 FILLER_28_15
*1518 FILLER_28_154
*1519 FILLER_28_165
*1520 FILLER_28_175
*1521 FILLER_28_183
*1522 FILLER_28_191
*1523 FILLER_28_195
*1524 FILLER_28_197
*1525 FILLER_28_209
*1526 FILLER_28_218
*1527 FILLER_28_225
*1528 FILLER_28_238
*1529 FILLER_28_245
*1530 FILLER_28_251
*1531 FILLER_28_256
*1532 FILLER_28_268
*1533 FILLER_28_27
*1534 FILLER_28_29
*1535 FILLER_28_295
*1536 FILLER_28_3
*1537 FILLER_28_41
*1538 FILLER_28_53
*1539 FILLER_28_65
*1540 FILLER_28_77
*1541 FILLER_28_8
*1542 FILLER_28_83
*1543 FILLER_28_85
*1544 FILLER_28_97
*1545 FILLER_29_101
*1546 FILLER_29_108
*1547 FILLER_29_113
*1548 FILLER_29_124
*1549 FILLER_29_136
*1550 FILLER_29_143
*1551 FILLER_29_147
*1552 FILLER_29_155
*1553 FILLER_29_164
*1554 FILLER_29_175
*1555 FILLER_29_181
*1556 FILLER_29_198
*1557 FILLER_29_210
*1558 FILLER_29_220
*1559 FILLER_29_225
*1560 FILLER_29_24
*1561 FILLER_29_247
*1562 FILLER_29_259
*1563 FILLER_29_265
*1564 FILLER_29_269
*1565 FILLER_29_276
*1566 FILLER_29_281
*1567 FILLER_29_285
*1568 FILLER_29_289
*1569 FILLER_29_297
*1570 FILLER_29_36
*1571 FILLER_29_48
*1572 FILLER_29_57
*1573 FILLER_29_69
*1574 FILLER_29_81
*1575 FILLER_29_93
*1576 FILLER_29_97
*1577 FILLER_2_102
*1578 FILLER_2_127
*1579 FILLER_2_136
*1580 FILLER_2_144
*1581 FILLER_2_15
*1582 FILLER_2_151
*1583 FILLER_2_159
*1584 FILLER_2_182
*1585 FILLER_2_188
*1586 FILLER_2_192
*1587 FILLER_2_197
*1588 FILLER_2_209
*1589 FILLER_2_216
*1590 FILLER_2_22
*1591 FILLER_2_223
*1592 FILLER_2_248
*1593 FILLER_2_256
*1594 FILLER_2_263
*1595 FILLER_2_270
*1596 FILLER_2_295
*1597 FILLER_2_3
*1598 FILLER_2_50
*1599 FILLER_2_75
*1600 FILLER_2_8
*1601 FILLER_2_83
*1602 FILLER_2_88
*1603 FILLER_2_95
*1604 FILLER_30_101
*1605 FILLER_30_108
*1606 FILLER_30_128
*1607 FILLER_30_136
*1608 FILLER_30_141
*1609 FILLER_30_152
*1610 FILLER_30_163
*1611 FILLER_30_183
*1612 FILLER_30_192
*1613 FILLER_30_20
*1614 FILLER_30_200
*1615 FILLER_30_220
*1616 FILLER_30_240
*1617 FILLER_30_253
*1618 FILLER_30_265
*1619 FILLER_30_273
*1620 FILLER_30_29
*1621 FILLER_30_295
*1622 FILLER_30_3
*1623 FILLER_30_41
*1624 FILLER_30_53
*1625 FILLER_30_65
*1626 FILLER_30_77
*1627 FILLER_30_8
*1628 FILLER_30_83
*1629 FILLER_30_85
*1630 FILLER_30_97
*1631 FILLER_31_101
*1632 FILLER_31_108
*1633 FILLER_31_113
*1634 FILLER_31_122
*1635 FILLER_31_134
*1636 FILLER_31_143
*1637 FILLER_31_15
*1638 FILLER_31_159
*1639 FILLER_31_167
*1640 FILLER_31_174
*1641 FILLER_31_181
*1642 FILLER_31_194
*1643 FILLER_31_207
*1644 FILLER_31_220
*1645 FILLER_31_241
*1646 FILLER_31_254
*1647 FILLER_31_266
*1648 FILLER_31_27
*1649 FILLER_31_272
*1650 FILLER_31_276
*1651 FILLER_31_281
*1652 FILLER_31_288
*1653 FILLER_31_295
*1654 FILLER_31_3
*1655 FILLER_31_39
*1656 FILLER_31_51
*1657 FILLER_31_55
*1658 FILLER_31_57
*1659 FILLER_31_69
*1660 FILLER_31_8
*1661 FILLER_31_81
*1662 FILLER_31_93
*1663 FILLER_31_97
*1664 FILLER_32_10
*1665 FILLER_32_100
*1666 FILLER_32_120
*1667 FILLER_32_128
*1668 FILLER_32_136
*1669 FILLER_32_148
*1670 FILLER_32_156
*1671 FILLER_32_164
*1672 FILLER_32_17
*1673 FILLER_32_175
*1674 FILLER_32_183
*1675 FILLER_32_192
*1676 FILLER_32_213
*1677 FILLER_32_221
*1678 FILLER_32_234
*1679 FILLER_32_247
*1680 FILLER_32_25
*1681 FILLER_32_251
*1682 FILLER_32_262
*1683 FILLER_32_277
*1684 FILLER_32_284
*1685 FILLER_32_29
*1686 FILLER_32_291
*1687 FILLER_32_3
*1688 FILLER_32_41
*1689 FILLER_32_53
*1690 FILLER_32_65
*1691 FILLER_32_77
*1692 FILLER_32_83
*1693 FILLER_32_85
*1694 FILLER_32_91
*1695 FILLER_33_108
*1696 FILLER_33_113
*1697 FILLER_33_117
*1698 FILLER_33_123
*1699 FILLER_33_134