*SPEF "ieee 1481-1999"
*DESIGN "wrapped_pong"
*DATE "11:11:11 Fri 11 11, 1111"
*VENDOR "OpenRCX"
*PROGRAM "Parallel Extraction"
*VERSION "1.0"
*DESIGN_FLOW "NAME_SCOPE LOCAL" "PIN_CAP NONE"
*DIVIDER /
*DELIMITER :
*BUS_DELIMITER []
*T_UNIT 1 NS
*C_UNIT 1 PF
*R_UNIT 1 OHM
*L_UNIT 1 HENRY

*NAME_MAP
*1 active
*2 io_in[0]
*3 io_in[10]
*4 io_in[11]
*5 io_in[12]
*6 io_in[13]
*7 io_in[14]
*8 io_in[15]
*9 io_in[16]
*10 io_in[17]
*11 io_in[18]
*12 io_in[19]
*13 io_in[1]
*14 io_in[20]
*15 io_in[21]
*16 io_in[22]
*17 io_in[23]
*18 io_in[24]
*19 io_in[25]
*20 io_in[26]
*21 io_in[27]
*22 io_in[28]
*23 io_in[29]
*24 io_in[2]
*25 io_in[30]
*26 io_in[31]
*27 io_in[32]
*28 io_in[33]
*29 io_in[34]
*30 io_in[35]
*31 io_in[36]
*32 io_in[37]
*33 io_in[3]
*34 io_in[4]
*35 io_in[5]
*36 io_in[6]
*37 io_in[7]
*38 io_in[8]
*39 io_in[9]
*40 io_oeb[0]
*41 io_oeb[10]
*42 io_oeb[11]
*43 io_oeb[12]
*44 io_oeb[13]
*45 io_oeb[14]
*46 io_oeb[15]
*47 io_oeb[16]
*48 io_oeb[17]
*49 io_oeb[18]
*50 io_oeb[19]
*51 io_oeb[1]
*52 io_oeb[20]
*53 io_oeb[21]
*54 io_oeb[22]
*55 io_oeb[23]
*56 io_oeb[24]
*57 io_oeb[25]
*58 io_oeb[26]
*59 io_oeb[27]
*60 io_oeb[28]
*61 io_oeb[29]
*62 io_oeb[2]
*63 io_oeb[30]
*64 io_oeb[31]
*65 io_oeb[32]
*66 io_oeb[33]
*67 io_oeb[34]
*68 io_oeb[35]
*69 io_oeb[36]
*70 io_oeb[37]
*71 io_oeb[3]
*72 io_oeb[4]
*73 io_oeb[5]
*74 io_oeb[6]
*75 io_oeb[7]
*76 io_oeb[8]
*77 io_oeb[9]
*78 io_out[0]
*79 io_out[10]
*80 io_out[11]
*81 io_out[12]
*82 io_out[13]
*83 io_out[14]
*84 io_out[15]
*85 io_out[16]
*86 io_out[17]
*87 io_out[18]
*88 io_out[19]
*89 io_out[1]
*90 io_out[20]
*91 io_out[21]
*92 io_out[22]
*93 io_out[23]
*94 io_out[24]
*95 io_out[25]
*96 io_out[26]
*97 io_out[27]
*98 io_out[28]
*99 io_out[29]
*100 io_out[2]
*101 io_out[30]
*102 io_out[31]
*103 io_out[32]
*104 io_out[33]
*105 io_out[34]
*106 io_out[35]
*107 io_out[36]
*108 io_out[37]
*109 io_out[3]
*110 io_out[4]
*111 io_out[5]
*112 io_out[6]
*113 io_out[7]
*114 io_out[8]
*115 io_out[9]
*116 irq[0]
*117 irq[1]
*118 irq[2]
*119 la_data_in[0]
*120 la_data_in[10]
*121 la_data_in[11]
*122 la_data_in[12]
*123 la_data_in[13]
*124 la_data_in[14]
*125 la_data_in[15]
*126 la_data_in[16]
*127 la_data_in[17]
*128 la_data_in[18]
*129 la_data_in[19]
*130 la_data_in[1]
*131 la_data_in[20]
*132 la_data_in[21]
*133 la_data_in[22]
*134 la_data_in[23]
*135 la_data_in[24]
*136 la_data_in[25]
*137 la_data_in[26]
*138 la_data_in[27]
*139 la_data_in[28]
*140 la_data_in[29]
*141 la_data_in[2]
*142 la_data_in[30]
*143 la_data_in[31]
*144 la_data_in[3]
*145 la_data_in[4]
*146 la_data_in[5]
*147 la_data_in[6]
*148 la_data_in[7]
*149 la_data_in[8]
*150 la_data_in[9]
*151 la_data_out[0]
*152 la_data_out[10]
*153 la_data_out[11]
*154 la_data_out[12]
*155 la_data_out[13]
*156 la_data_out[14]
*157 la_data_out[15]
*158 la_data_out[16]
*159 la_data_out[17]
*160 la_data_out[18]
*161 la_data_out[19]
*162 la_data_out[1]
*163 la_data_out[20]
*164 la_data_out[21]
*165 la_data_out[22]
*166 la_data_out[23]
*167 la_data_out[24]
*168 la_data_out[25]
*169 la_data_out[26]
*170 la_data_out[27]
*171 la_data_out[28]
*172 la_data_out[29]
*173 la_data_out[2]
*174 la_data_out[30]
*175 la_data_out[31]
*176 la_data_out[3]
*177 la_data_out[4]
*178 la_data_out[5]
*179 la_data_out[6]
*180 la_data_out[7]
*181 la_data_out[8]
*182 la_data_out[9]
*183 la_oenb[0]
*184 la_oenb[10]
*185 la_oenb[11]
*186 la_oenb[12]
*187 la_oenb[13]
*188 la_oenb[14]
*189 la_oenb[15]
*190 la_oenb[16]
*191 la_oenb[17]
*192 la_oenb[18]
*193 la_oenb[19]
*194 la_oenb[1]
*195 la_oenb[20]
*196 la_oenb[21]
*197 la_oenb[22]
*198 la_oenb[23]
*199 la_oenb[24]
*200 la_oenb[25]
*201 la_oenb[26]
*202 la_oenb[27]
*203 la_oenb[28]
*204 la_oenb[29]
*205 la_oenb[2]
*206 la_oenb[30]
*207 la_oenb[31]
*208 la_oenb[3]
*209 la_oenb[4]
*210 la_oenb[5]
*211 la_oenb[6]
*212 la_oenb[7]
*213 la_oenb[8]
*214 la_oenb[9]
*215 user_clock2
*218 wb_clk_i
*219 wb_rst_i
*220 wbs_ack_o
*221 wbs_adr_i[0]
*222 wbs_adr_i[10]
*223 wbs_adr_i[11]
*224 wbs_adr_i[12]
*225 wbs_adr_i[13]
*226 wbs_adr_i[14]
*227 wbs_adr_i[15]
*228 wbs_adr_i[16]
*229 wbs_adr_i[17]
*230 wbs_adr_i[18]
*231 wbs_adr_i[19]
*232 wbs_adr_i[1]
*233 wbs_adr_i[20]
*234 wbs_adr_i[21]
*235 wbs_adr_i[22]
*236 wbs_adr_i[23]
*237 wbs_adr_i[24]
*238 wbs_adr_i[25]
*239 wbs_adr_i[26]
*240 wbs_adr_i[27]
*241 wbs_adr_i[28]
*242 wbs_adr_i[29]
*243 wbs_adr_i[2]
*244 wbs_adr_i[30]
*245 wbs_adr_i[31]
*246 wbs_adr_i[3]
*247 wbs_adr_i[4]
*248 wbs_adr_i[5]
*249 wbs_adr_i[6]
*250 wbs_adr_i[7]
*251 wbs_adr_i[8]
*252 wbs_adr_i[9]
*253 wbs_cyc_i
*254 wbs_dat_i[0]
*255 wbs_dat_i[10]
*256 wbs_dat_i[11]
*257 wbs_dat_i[12]
*258 wbs_dat_i[13]
*259 wbs_dat_i[14]
*260 wbs_dat_i[15]
*261 wbs_dat_i[16]
*262 wbs_dat_i[17]
*263 wbs_dat_i[18]
*264 wbs_dat_i[19]
*265 wbs_dat_i[1]
*266 wbs_dat_i[20]
*267 wbs_dat_i[21]
*268 wbs_dat_i[22]
*269 wbs_dat_i[23]
*270 wbs_dat_i[24]
*271 wbs_dat_i[25]
*272 wbs_dat_i[26]
*273 wbs_dat_i[27]
*274 wbs_dat_i[28]
*275 wbs_dat_i[29]
*276 wbs_dat_i[2]
*277 wbs_dat_i[30]
*278 wbs_dat_i[31]
*279 wbs_dat_i[3]
*280 wbs_dat_i[4]
*281 wbs_dat_i[5]
*282 wbs_dat_i[6]
*283 wbs_dat_i[7]
*284 wbs_dat_i[8]
*285 wbs_dat_i[9]
*286 wbs_dat_o[0]
*287 wbs_dat_o[10]
*288 wbs_dat_o[11]
*289 wbs_dat_o[12]
*290 wbs_dat_o[13]
*291 wbs_dat_o[14]
*292 wbs_dat_o[15]
*293 wbs_dat_o[16]
*294 wbs_dat_o[17]
*295 wbs_dat_o[18]
*296 wbs_dat_o[19]
*297 wbs_dat_o[1]
*298 wbs_dat_o[20]
*299 wbs_dat_o[21]
*300 wbs_dat_o[22]
*301 wbs_dat_o[23]
*302 wbs_dat_o[24]
*303 wbs_dat_o[25]
*304 wbs_dat_o[26]
*305 wbs_dat_o[27]
*306 wbs_dat_o[28]
*307 wbs_dat_o[29]
*308 wbs_dat_o[2]
*309 wbs_dat_o[30]
*310 wbs_dat_o[31]
*311 wbs_dat_o[3]
*312 wbs_dat_o[4]
*313 wbs_dat_o[5]
*314 wbs_dat_o[6]
*315 wbs_dat_o[7]
*316 wbs_dat_o[8]
*317 wbs_dat_o[9]
*318 wbs_sel_i[0]
*319 wbs_sel_i[1]
*320 wbs_sel_i[2]
*321 wbs_sel_i[3]
*322 wbs_stb_i
*323 wbs_we_i
*324 _0000_
*325 _0001_
*326 _0002_
*327 _0003_
*328 _0004_
*329 _0005_
*330 _0006_
*331 _0007_
*332 _0008_
*333 _0009_
*334 _0010_
*335 _0011_
*336 _0012_
*337 _0013_
*338 _0014_
*339 _0015_
*340 _0016_
*341 _0017_
*342 _0018_
*343 _0019_
*344 _0020_
*345 _0021_
*346 _0022_
*347 _0023_
*348 _0024_
*349 _0025_
*350 _0026_
*351 _0027_
*352 _0028_
*353 _0029_
*354 _0030_
*355 _0031_
*356 _0032_
*357 _0033_
*358 _0034_
*359 _0035_
*360 _0036_
*361 _0037_
*362 _0038_
*363 _0039_
*364 _0040_
*365 _0041_
*366 _0042_
*367 _0043_
*368 _0044_
*369 _0045_
*370 _0046_
*371 _0047_
*372 _0048_
*373 _0049_
*374 _0050_
*375 _0051_
*376 _0052_
*377 _0053_
*378 _0054_
*379 _0055_
*380 _0056_
*381 _0057_
*382 _0058_
*383 _0059_
*384 _0060_
*385 _0061_
*386 _0062_
*387 _0063_
*388 _0064_
*389 _0065_
*390 _0066_
*391 _0067_
*392 _0068_
*393 _0069_
*394 _0070_
*395 _0071_
*396 _0072_
*397 _0073_
*398 _0074_
*399 _0075_
*400 _0076_
*401 _0077_
*402 _0078_
*403 _0079_
*404 _0080_
*405 _0081_
*406 _0082_
*407 _0083_
*408 _0084_
*409 _0085_
*410 _0086_
*411 _0087_
*412 _0088_
*413 _0089_
*414 _0090_
*415 _0091_
*416 _0092_
*417 _0093_
*418 _0094_
*419 _0095_
*420 _0096_
*421 _0097_
*422 _0098_
*423 _0099_
*424 _0100_
*425 _0101_
*426 _0102_
*427 _0103_
*428 _0104_
*429 _0105_
*430 _0106_
*431 _0107_
*432 _0108_
*433 _0109_
*434 _0110_
*435 _0111_
*436 _0112_
*437 _0113_
*438 _0114_
*439 _0115_
*440 _0116_
*441 _0117_
*442 _0118_
*443 _0119_
*444 _0120_
*445 _0121_
*446 _0122_
*447 _0123_
*448 _0124_
*449 _0125_
*450 _0126_
*451 _0127_
*452 _0128_
*453 _0129_
*454 _0130_
*455 _0131_
*456 _0132_
*457 _0133_
*458 _0134_
*459 _0135_
*460 _0136_
*461 _0137_
*462 _0138_
*463 _0139_
*464 _0140_
*465 _0141_
*466 _0142_
*467 _0143_
*468 _0144_
*469 _0145_
*470 _0146_
*471 _0147_
*472 _0148_
*473 _0149_
*474 _0150_
*475 _0151_
*476 _0152_
*477 _0153_
*478 _0154_
*479 _0155_
*480 _0156_
*481 _0157_
*482 _0158_
*483 _0159_
*484 _0160_
*485 _0161_
*486 _0162_
*487 _0163_
*488 _0164_
*489 _0165_
*490 _0166_
*491 _0167_
*492 _0168_
*493 _0169_
*494 _0170_
*495 _0171_
*496 _0172_
*497 _0173_
*498 _0174_
*499 _0175_
*500 _0176_
*501 _0177_
*502 _0178_
*503 _0179_
*504 _0180_
*505 _0181_
*506 _0182_
*507 _0183_
*508 _0184_
*509 _0185_
*510 _0186_
*511 _0187_
*512 _0188_
*513 _0189_
*514 _0190_
*515 _0191_
*516 _0192_
*517 _0193_
*518 _0194_
*519 _0195_
*520 _0196_
*521 _0197_
*522 _0198_
*523 _0199_
*524 _0200_
*525 _0201_
*526 _0202_
*527 _0203_
*528 _0204_
*529 _0205_
*530 _0206_
*531 _0207_
*532 _0208_
*533 _0209_
*534 _0210_
*535 _0211_
*536 _0212_
*537 _0213_
*538 _0214_
*539 _0215_
*540 _0216_
*541 _0217_
*542 _0218_
*543 _0219_
*544 _0220_
*545 _0221_
*546 _0222_
*547 _0223_
*548 _0224_
*549 _0225_
*550 _0226_
*551 _0227_
*552 _0228_
*553 _0229_
*554 _0230_
*555 _0231_
*556 _0232_
*557 _0233_
*558 _0234_
*559 _0235_
*560 _0236_
*561 _0237_
*562 _0238_
*563 _0239_
*564 _0240_
*565 _0241_
*566 _0242_
*567 _0243_
*568 _0244_
*569 _0245_
*570 _0246_
*571 _0247_
*572 _0248_
*573 _0249_
*574 _0250_
*575 _0251_
*576 _0252_
*577 _0253_
*578 _0254_
*579 _0255_
*580 _0256_
*581 _0257_
*582 _0258_
*583 _0259_
*584 _0260_
*585 _0261_
*586 _0262_
*587 _0263_
*588 _0264_
*589 _0265_
*590 _0266_
*591 _0267_
*592 _0268_
*593 _0269_
*594 _0270_
*595 _0271_
*596 _0272_
*597 _0273_
*598 _0274_
*599 _0275_
*600 _0276_
*601 _0277_
*602 _0278_
*603 _0279_
*604 _0280_
*605 _0281_
*606 _0282_
*607 _0283_
*608 _0284_
*609 _0285_
*610 _0286_
*611 _0287_
*612 _0288_
*613 _0289_
*614 _0290_
*615 _0291_
*616 _0292_
*617 _0293_
*618 _0294_
*619 _0295_
*620 _0296_
*621 _0297_
*622 _0298_
*623 _0299_
*624 _0300_
*625 _0301_
*626 _0302_
*627 _0303_
*628 _0304_
*629 _0305_
*630 _0306_
*631 _0307_
*632 _0308_
*633 _0309_
*634 _0310_
*635 _0311_
*636 _0312_
*637 _0313_
*638 _0314_
*639 _0315_
*640 _0316_
*641 _0317_
*642 _0318_
*643 _0319_
*644 _0320_
*645 _0321_
*646 _0322_
*647 _0323_
*648 _0324_
*649 _0325_
*650 _0326_
*651 _0327_
*652 _0328_
*653 _0329_
*654 _0330_
*655 _0331_
*656 _0332_
*657 _0333_
*658 _0334_
*659 _0335_
*660 _0336_
*661 _0337_
*662 _0338_
*663 _0339_
*664 _0340_
*665 _0341_
*666 _0342_
*667 _0343_
*668 _0344_
*669 _0345_
*670 _0346_
*671 _0347_
*672 _0348_
*673 _0349_
*674 _0350_
*675 _0351_
*676 _0352_
*677 _0353_
*678 _0354_
*679 _0355_
*680 _0356_
*681 _0357_
*682 _0358_
*683 _0359_
*684 _0360_
*685 _0361_
*686 _0362_
*687 _0363_
*688 _0364_
*689 _0365_
*690 _0366_
*691 _0367_
*692 _0368_
*693 _0369_
*694 _0370_
*695 _0371_
*696 _0372_
*697 _0373_
*698 _0374_
*699 _0375_
*700 _0376_
*701 _0377_
*702 _0378_
*703 _0379_
*704 _0380_
*705 _0381_
*706 _0382_
*707 _0383_
*708 _0384_
*709 _0385_
*710 _0386_
*711 _0387_
*712 _0388_
*713 _0389_
*714 _0390_
*715 _0391_
*716 _0392_
*717 _0393_
*718 _0394_
*719 _0395_
*720 _0396_
*721 _0397_
*722 _0398_
*723 _0399_
*724 _0400_
*725 _0401_
*726 _0402_
*727 _0403_
*728 _0404_
*729 _0405_
*730 _0406_
*731 _0407_
*732 _0408_
*733 _0409_
*734 _0410_
*735 _0411_
*736 _0412_
*737 _0413_
*738 _0414_
*739 _0415_
*740 _0416_
*741 _0417_
*742 _0418_
*743 _0419_
*744 _0420_
*745 _0421_
*746 _0422_
*747 _0423_
*748 _0424_
*749 _0425_
*750 _0426_
*751 _0427_
*752 _0428_
*753 _0429_
*754 _0430_
*755 _0431_
*756 _0432_
*757 _0433_
*758 _0434_
*759 _0435_
*760 _0436_
*761 _0437_
*762 _0438_
*763 _0439_
*764 _0440_
*765 _0441_
*766 _0442_
*767 _0443_
*768 _0444_
*769 _0445_
*770 _0446_
*771 _0447_
*772 _0448_
*773 _0449_
*774 _0450_
*775 _0451_
*776 _0452_
*777 _0453_
*778 _0454_
*779 _0455_
*780 _0456_
*781 _0457_
*782 _0458_
*783 _0459_
*784 _0460_
*785 _0461_
*786 _0462_
*787 _0463_
*788 _0464_
*789 _0465_
*790 _0466_
*791 _0467_
*792 _0468_
*793 _0469_
*794 _0470_
*795 _0471_
*796 _0472_
*797 _0473_
*798 _0474_
*799 _0475_
*800 _0476_
*801 _0477_
*802 _0478_
*803 _0479_
*804 _0480_
*805 _0481_
*806 _0482_
*807 _0483_
*808 _0484_
*809 _0485_
*810 _0486_
*811 _0487_
*812 _0488_
*813 _0489_
*814 _0490_
*815 _0491_
*816 _0492_
*817 _0493_
*818 _0494_
*819 _0495_
*820 _0496_
*821 _0497_
*822 _0498_
*823 _0499_
*824 _0500_
*825 _0501_
*826 _0502_
*827 _0503_
*828 _0504_
*829 _0505_
*830 _0506_
*831 _0507_
*832 _0508_
*833 _0509_
*834 _0510_
*835 _0511_
*836 _0512_
*837 _0513_
*838 _0514_
*839 _0515_
*840 _0516_
*841 _0517_
*842 _0518_
*843 _0519_
*844 _0520_
*845 _0521_
*846 _0522_
*847 _0523_
*848 _0524_
*849 _0525_
*850 _0526_
*851 _0527_
*852 _0528_
*853 _0529_
*854 _0530_
*855 _0531_
*856 _0532_
*857 _0533_
*858 _0534_
*859 _0535_
*860 _0536_
*861 _0537_
*862 _0538_
*863 _0539_
*864 _0540_
*865 _0541_
*866 _0542_
*867 _0543_
*868 _0544_
*869 _0545_
*870 _0546_
*871 _0547_
*872 _0548_
*873 _0549_
*874 _0550_
*875 _0551_
*876 _0552_
*877 _0553_
*878 _0554_
*879 _0555_
*880 _0556_
*881 _0557_
*882 _0558_
*883 _0559_
*884 _0560_
*885 _0561_
*886 _0562_
*887 _0563_
*888 _0564_
*889 _0565_
*890 _0566_
*891 _0567_
*892 _0568_
*893 _0569_
*894 _0570_
*895 _0571_
*896 _0572_
*897 _0573_
*898 _0574_
*899 _0575_
*900 _0576_
*901 _0577_
*902 _0578_
*903 _0579_
*904 _0580_
*905 _0581_
*906 _0582_
*907 _0583_
*908 _0584_
*909 _0585_
*910 _0586_
*911 _0587_
*912 _0588_
*913 _0589_
*914 _0590_
*915 _0591_
*916 _0592_
*917 _0593_
*918 _0594_
*919 _0595_
*920 _0596_
*921 _0597_
*922 _0598_
*923 _0599_
*924 _0600_
*925 _0601_
*926 _0602_
*927 _0603_
*928 _0604_
*929 _0605_
*930 _0606_
*931 _0607_
*932 _0608_
*933 _0609_
*934 _0610_
*935 _0611_
*936 _0612_
*937 _0613_
*938 _0614_
*939 _0615_
*940 _0616_
*941 _0617_
*942 _0618_
*943 _0619_
*944 _0620_
*945 _0621_
*946 _0622_
*947 _0623_
*948 _0624_
*949 _0625_
*950 _0626_
*951 _0627_
*952 _0628_
*953 _0629_
*954 _0630_
*955 _0631_
*956 _0632_
*957 _0633_
*958 _0634_
*959 _0635_
*960 _0636_
*961 _0637_
*962 _0638_
*963 _0639_
*964 _0640_
*965 _0641_
*966 _0642_
*967 _0643_
*968 _0644_
*969 _0645_
*970 _0646_
*971 _0647_
*972 _0648_
*973 _0649_
*974 _0650_
*975 _0651_
*976 _0652_
*977 _0653_
*978 _0654_
*979 _0655_
*980 _0656_
*981 _0657_
*982 _0658_
*983 _0659_
*984 _0660_
*985 _0661_
*986 _0662_
*987 _0663_
*988 _0664_
*989 _0665_
*990 _0666_
*991 _0667_
*992 _0668_
*993 _0669_
*994 _0670_
*995 _0671_
*996 _0672_
*997 _0673_
*998 _0674_
*999 _0675_
*1000 _0676_
*1001 _0677_
*1002 _0678_
*1003 _0679_
*1004 _0680_
*1005 _0681_
*1006 _0682_
*1007 _0683_
*1008 _0684_
*1009 _0685_
*1010 _0686_
*1011 _0687_
*1012 _0688_
*1013 _0689_
*1014 _0690_
*1015 _0691_
*1016 _0692_
*1017 _0693_
*1018 _0694_
*1019 _0695_
*1020 _0696_
*1021 _0697_
*1022 _0698_
*1023 _0699_
*1024 _0700_
*1025 _0701_
*1026 _0702_
*1027 _0703_
*1028 _0704_
*1029 _0705_
*1030 _0706_
*1031 _0707_
*1032 _0708_
*1033 _0709_
*1034 _0710_
*1035 _0711_
*1036 _0712_
*1037 _0713_
*1038 _0714_
*1039 _0715_
*1040 _0716_
*1041 _0717_
*1042 _0718_
*1043 _0719_
*1044 _0720_
*1045 _0721_
*1046 _0722_
*1047 _0723_
*1048 _0724_
*1049 _0725_
*1050 _0726_
*1051 _0727_
*1052 _0728_
*1053 _0729_
*1054 _0730_
*1055 _0731_
*1056 _0732_
*1057 _0733_
*1058 _0734_
*1059 _0735_
*1060 _0736_
*1061 _0737_
*1062 _0738_
*1063 _0739_
*1064 _0740_
*1065 _0741_
*1066 _0742_
*1067 _0743_
*1068 _0744_
*1069 _0745_
*1070 _0746_
*1071 _0747_
*1072 _0748_
*1073 _0749_
*1074 _0750_
*1075 _0751_
*1076 _0752_
*1077 _0753_
*1078 _0754_
*1079 _0755_
*1080 _0756_
*1081 _0757_
*1082 _0758_
*1083 _0759_
*1084 _0760_
*1085 _0761_
*1086 _0762_
*1087 _0763_
*1088 _0764_
*1089 _0765_
*1090 _0766_
*1091 _0767_
*1092 _0768_
*1093 _0769_
*1094 _0770_
*1095 _0771_
*1096 _0772_
*1097 _0773_
*1098 _0774_
*1099 _0775_
*1100 _0776_
*1101 _0777_
*1102 _0778_
*1103 _0779_
*1104 _0780_
*1105 _0781_
*1106 _0782_
*1107 _0783_
*1108 _0784_
*1109 _0785_
*1110 _0786_
*1111 _0787_
*1112 _0788_
*1113 _0789_
*1114 _0790_
*1115 _0791_
*1116 _0792_
*1117 _0793_
*1118 _0794_
*1119 _0795_
*1120 _0796_
*1121 _0797_
*1122 _0798_
*1123 _0799_
*1124 _0800_
*1125 _0801_
*1126 _0802_
*1127 _0803_
*1128 _0804_
*1129 _0805_
*1130 _0806_
*1131 _0807_
*1132 _0808_
*1133 _0809_
*1134 _0810_
*1135 _0811_
*1136 _0812_
*1137 _0813_
*1138 _0814_
*1139 _0815_
*1140 _0816_
*1141 _0817_
*1142 _0818_
*1143 _0819_
*1144 _0820_
*1145 _0821_
*1146 _0822_
*1147 _0823_
*1148 _0824_
*1149 _0825_
*1150 _0826_
*1151 _0827_
*1152 _0828_
*1153 _0829_
*1154 _0830_
*1155 _0831_
*1156 _0832_
*1157 _0833_
*1158 _0834_
*1159 _0835_
*1160 _0836_
*1161 _0837_
*1162 _0838_
*1163 _0839_
*1164 _0840_
*1165 _0841_
*1166 _0842_
*1167 _0843_
*1168 _0844_
*1169 _0845_
*1170 _0846_
*1171 _0847_
*1172 _0848_
*1173 _0849_
*1174 _0850_
*1175 _0851_
*1176 _0852_
*1177 _0853_
*1178 _0854_
*1179 _0855_
*1180 _0856_
*1181 _0857_
*1182 _0858_
*1183 _0859_
*1184 _0860_
*1185 _0861_
*1186 _0862_
*1187 _0863_
*1188 _0864_
*1189 _0865_
*1190 _0866_
*1191 _0867_
*1192 _0868_
*1193 _0869_
*1194 _0870_
*1195 _0871_
*1196 _0872_
*1197 _0873_
*1198 _0874_
*1199 _0875_
*1200 _0876_
*1201 _0877_
*1202 _0878_
*1203 _0879_
*1204 _0880_
*1205 _0881_
*1206 _0882_
*1207 _0883_
*1208 _0884_
*1209 _0885_
*1210 _0886_
*1211 _0887_
*1212 _0888_
*1213 _0889_
*1214 _0890_
*1215 _0891_
*1216 _0892_
*1217 _0893_
*1218 _0894_
*1219 _0895_
*1220 _0896_
*1221 _0897_
*1222 _0898_
*1223 _0899_
*1224 _0900_
*1225 _0901_
*1226 _0902_
*1227 _0903_
*1228 _0904_
*1229 _0905_
*1230 _0906_
*1231 _0907_
*1232 _0908_
*1233 _0909_
*1234 _0910_
*1235 _0911_
*1236 _0912_
*1237 _0913_
*1238 _0914_
*1239 _0915_
*1240 _0916_
*1241 _0917_
*1242 _0918_
*1243 _0919_
*1244 _0920_
*1245 _0921_
*1246 _0922_
*1247 _0923_
*1248 _0924_
*1249 _0925_
*1250 _0926_
*1251 _0927_
*1252 _0928_
*1253 _0929_
*1254 _0930_
*1255 _0931_
*1256 _0932_
*1257 _0933_
*1258 _0934_
*1259 _0935_
*1260 _0936_
*1261 _0937_
*1262 _0938_
*1263 _0939_
*1264 _0940_
*1265 _0941_
*1266 _0942_
*1267 _0943_
*1268 _0944_
*1269 _0945_
*1270 _0946_
*1271 _0947_
*1272 _0948_
*1273 _0949_
*1274 _0950_
*1275 _0951_
*1276 _0952_
*1277 _0953_
*1278 _0954_
*1279 _0955_
*1280 _0956_
*1281 _0957_
*1282 _0958_
*1283 _0959_
*1284 _0960_
*1285 _0961_
*1286 _0962_
*1287 _0963_
*1288 _0964_
*1289 _0965_
*1290 _0966_
*1291 _0967_
*1292 _0968_
*1293 _0969_
*1294 _0970_
*1295 _0971_
*1296 _0972_
*1297 _0973_
*1298 _0974_
*1299 _0975_
*1300 _0976_
*1301 _0977_
*1302 _0978_
*1303 _0979_
*1304 _0980_
*1305 _0981_
*1306 _0982_
*1307 _0983_
*1308 _0984_
*1309 _0985_
*1310 _0986_
*1311 _0987_
*1312 _0988_
*1313 _0989_
*1314 _0990_
*1315 _0991_
*1316 _0992_
*1317 _0993_
*1318 _0994_
*1319 _0995_
*1320 _0996_
*1321 _0997_
*1322 _0998_
*1323 _0999_
*1324 _1000_
*1325 _1001_
*1326 _1002_
*1327 _1003_
*1328 _1004_
*1329 _1005_
*1330 _1006_
*1331 _1007_
*1332 _1008_
*1333 _1009_
*1334 _1010_
*1335 _1011_
*1336 _1012_
*1337 _1013_
*1338 _1014_
*1339 _1015_
*1340 _1016_
*1341 _1017_
*1342 _1018_
*1343 _1019_
*1344 _1020_
*1345 _1021_
*1346 _1022_
*1347 _1023_
*1348 _1024_
*1349 _1025_
*1350 _1026_
*1351 _1027_
*1352 _1028_
*1353 _1029_
*1354 _1030_
*1355 _1031_
*1356 _1032_
*1357 _1033_
*1358 _1034_
*1359 _1035_
*1360 _1036_
*1361 _1037_
*1362 _1038_
*1363 _1039_
*1364 _1040_
*1365 _1041_
*1366 _1042_
*1367 _1043_
*1368 _1044_
*1369 _1045_
*1370 _1046_
*1371 _1047_
*1372 _1048_
*1373 _1049_
*1374 _1050_
*1375 _1051_
*1376 _1052_
*1377 _1053_
*1378 _1054_
*1379 _1055_
*1380 _1056_
*1381 _1057_
*1382 _1058_
*1383 _1059_
*1384 _1060_
*1385 _1061_
*1386 _1062_
*1387 _1063_
*1388 _1064_
*1389 _1065_
*1390 _1066_
*1391 _1067_
*1392 _1068_
*1393 _1069_
*1394 _1070_
*1395 _1071_
*1396 _1072_
*1397 _1073_
*1398 _1074_
*1399 _1075_
*1400 _1076_
*1401 _1077_
*1402 _1078_
*1403 _1079_
*1404 _1080_
*1405 _1081_
*1406 _1082_
*1407 _1083_
*1408 _1084_
*1409 _1085_
*1410 _1086_
*1411 _1087_
*1412 _1088_
*1413 _1089_
*1414 _1090_
*1415 _1091_
*1416 _1092_
*1417 _1093_
*1418 _1094_
*1419 _1095_
*1420 _1096_
*1421 _1097_
*1422 _1098_
*1423 _1099_
*1424 _1100_
*1425 _1101_
*1426 _1102_
*1427 _1103_
*1428 _1104_
*1429 _1105_
*1430 _1106_
*1431 _1107_
*1432 _1108_
*1433 _1109_
*1434 _1110_
*1435 _1111_
*1436 _1112_
*1437 _1113_
*1438 _1114_
*1439 _1115_
*1440 _1116_
*1441 _1117_
*1442 _1118_
*1443 _1119_
*1444 _1120_
*1445 _1121_
*1446 _1122_
*1447 _1123_
*1448 _1124_
*1449 _1125_
*1450 _1126_
*1451 _1127_
*1452 _1128_
*1453 _1129_
*1454 _1130_
*1455 _1131_
*1456 _1132_
*1457 _1133_
*1458 _1134_
*1459 _1135_
*1460 _1136_
*1461 _1137_
*1462 _1138_
*1463 _1139_
*1464 _1140_
*1465 _1141_
*1466 _1142_
*1467 _1143_
*1468 _1144_
*1469 _1145_
*1470 _1146_
*1471 _1147_
*1472 _1148_
*1473 _1149_
*1474 _1150_
*1475 _1151_
*1476 _1152_
*1477 _1153_
*1478 _1154_
*1479 _1155_
*1480 _1156_
*1481 _1157_
*1482 _1158_
*1483 _1159_
*1484 _1160_
*1485 _1161_
*1486 _1162_
*1487 _1163_
*1488 _1164_
*1489 _1165_
*1490 _1166_
*1491 _1167_
*1492 _1168_
*1493 _1169_
*1494 _1170_
*1495 _1171_
*1496 _1172_
*1497 _1173_
*1498 _1174_
*1499 _1175_
*1500 _1176_
*1501 _1177_
*1502 _1178_
*1503 _1179_
*1504 _1180_
*1505 _1181_
*1506 _1182_
*1507 _1183_
*1508 _1184_
*1509 _1185_
*1510 _1186_
*1511 _1187_
*1512 _1188_
*1513 _1189_
*1514 _1190_
*1515 _1191_
*1516 _1192_
*1517 _1193_
*1518 _1194_
*1519 _1195_
*1520 _1196_
*1521 _1197_
*1522 _1198_
*1523 _1199_
*1524 _1200_
*1525 _1201_
*1526 _1202_
*1527 _1203_
*1528 _1204_
*1529 _1205_
*1530 _1206_
*1531 _1207_
*1532 _1208_
*1533 _1209_
*1534 _1210_
*1535 _1211_
*1536 _1212_
*1537 _1213_
*1538 _1214_
*1539 _1215_
*1540 _1216_
*1541 _1217_
*1542 _1218_
*1543 _1219_
*1544 _1220_
*1545 _1221_
*1546 _1222_
*1547 _1223_
*1548 _1224_
*1549 _1225_
*1550 _1226_
*1551 _1227_
*1552 _1228_
*1553 _1229_
*1554 _1230_
*1555 _1231_
*1556 _1232_
*1557 _1233_
*1558 _1234_
*1559 _1235_
*1560 _1236_
*1561 _1237_
*1562 _1238_
*1563 _1239_
*1564 _1240_
*1565 _1241_
*1566 _1242_
*1567 _1243_
*1568 _1244_
*1569 _1245_
*1570 _1246_
*1571 _1247_
*1572 _1248_
*1573 _1249_
*1574 _1250_
*1575 _1251_
*1576 _1252_
*1577 _1253_
*1578 _1254_
*1579 _1255_
*1580 _1256_
*1581 _1257_
*1582 _1258_
*1583 _1259_
*1584 _1260_
*1585 _1261_
*1586 _1262_
*1587 _1263_
*1588 _1264_
*1589 _1265_
*1590 _1266_
*1591 _1267_
*1592 _1268_
*1593 _1269_
*1594 _1270_
*1595 _1271_
*1596 _1272_
*1597 _1273_
*1598 _1274_
*1599 _1275_
*1600 _1276_
*1601 _1277_
*1602 _1278_
*1603 _1279_
*1604 _1280_
*1605 _1281_
*1606 _1282_
*1607 _1283_
*1608 _1284_
*1609 _1285_
*1610 _1286_
*1611 _1287_
*1612 _1288_
*1613 _1289_
*1614 _1290_
*1615 _1291_
*1616 _1292_
*1617 _1293_
*1618 _1294_
*1619 _1295_
*1620 _1296_
*1621 _1297_
*1622 _1298_
*1623 _1299_
*1624 _1300_
*1625 _1301_
*1626 _1302_
*1627 _1303_
*1628 _1304_
*1629 _1305_
*1630 _1306_
*1631 _1307_
*1632 _1308_
*1633 _1309_
*1634 _1310_
*1635 _1311_
*1636 _1312_
*1637 _1313_
*1638 _1314_
*1639 _1315_
*1640 _1316_
*1641 _1317_
*1642 _1318_
*1643 _1319_
*1644 _1320_
*1645 _1321_
*1646 _1322_
*1647 _1323_
*1648 _1324_
*1649 _1325_
*1650 _1326_
*1651 _1327_
*1652 _1328_
*1653 _1329_
*1654 _1330_
*1655 _1331_
*1656 _1332_
*1657 _1333_
*1658 _1334_
*1659 _1335_
*1660 _1336_
*1661 _1337_
*1662 _1338_
*1663 _1339_
*1664 _1340_
*1665 _1341_
*1666 _1342_
*1667 _1343_
*1668 _1344_
*1669 _1345_
*1670 _1346_
*1671 _1347_
*1672 _1348_
*1673 _1349_
*1674 _1350_
*1675 _1351_
*1676 _1352_
*1677 _1353_
*1678 _1354_
*1679 _1355_
*1680 _1356_
*1681 _1357_
*1682 _1358_
*1683 _1359_
*1684 _1360_
*1685 _1361_
*1686 _1362_
*1687 _1363_
*1688 _1364_
*1689 _1365_
*1690 _1366_
*1691 _1367_
*1692 _1368_
*1693 _1369_
*1694 _1370_
*1695 _1371_
*1696 _1372_
*1697 _1373_
*1698 _1374_
*1699 _1375_
*1700 _1376_
*1701 _1377_
*1702 _1378_
*1703 _1379_
*1704 _1380_
*1705 _1381_
*1706 _1382_
*1707 _1383_
*1708 _1384_
*1709 _1385_
*1710 _1386_
*1711 _1387_
*1712 _1388_
*1713 _1389_
*1714 _1390_
*1715 _1391_
*1716 _1392_
*1717 _1393_
*1718 _1394_
*1719 _1395_
*1720 _1396_
*1721 _1397_
*1722 _1398_
*1723 _1399_
*1724 _1400_
*1725 _1401_
*1726 _1402_
*1727 _1403_
*1728 _1404_
*1729 _1405_
*1730 _1406_
*1731 _1407_
*1732 _1408_
*1733 _1409_
*1734 _1410_
*1735 _1411_
*1736 _1412_
*1737 _1413_
*1738 _1414_
*1739 _1415_
*1740 _1416_
*1741 _1417_
*1742 _1418_
*1743 _1419_
*1744 _1420_
*1745 _1421_
*1746 _1422_
*1747 _1423_
*1748 _1424_
*1749 _1425_
*1750 _1426_
*1751 _1427_
*1752 _1428_
*1753 _1429_
*1754 _1430_
*1755 _1431_
*1756 _1432_
*1757 _1433_
*1758 _1434_
*1759 _1435_
*1760 _1436_
*1761 _1437_
*1762 _1438_
*1763 _1439_
*1764 _1440_
*1765 _1441_
*1766 _1442_
*1767 _1443_
*1768 _1444_
*1769 _1445_
*1770 _1446_
*1771 _1447_
*1772 _1448_
*1773 _1449_
*1774 _1450_
*1775 _1451_
*1776 _1452_
*1777 _1453_
*1778 _1454_
*1779 _1455_
*1780 _1456_
*1781 _1457_
*1782 _1458_
*1783 _1459_
*1784 _1460_
*1785 _1461_
*1786 _1462_
*1787 _1463_
*1788 _1464_
*1789 _1465_
*1790 _1466_
*1791 _1467_
*1792 _1468_
*1793 _1469_
*1794 _1470_
*1795 _1471_
*1796 _1472_
*1797 _1473_
*1798 _1474_
*1799 _1475_
*1800 _1476_
*1801 _1477_
*1802 _1478_
*1803 _1479_
*1804 _1480_
*1805 _1481_
*1806 _1482_
*1807 _1483_
*1808 _1484_
*1809 _1485_
*1810 _1486_
*1811 _1487_
*1812 _1488_
*1813 _1489_
*1814 _1490_
*1815 _1491_
*1816 _1492_
*1817 _1493_
*1818 _1494_
*1819 _1495_
*1820 _1496_
*1821 _1497_
*1822 _1498_
*1823 _1499_
*1824 _1500_
*1825 _1501_
*1826 _1502_
*1827 _1503_
*1828 _1504_
*1829 _1505_
*1830 _1506_
*1831 _1507_
*1832 _1508_
*1833 _1509_
*1834 _1510_
*1835 _1511_
*1836 _1512_
*1837 _1513_
*1838 _1514_
*1839 _1515_
*1840 _1516_
*1841 _1517_
*1842 _1518_
*1843 _1519_
*1844 _1520_
*1845 _1521_
*1846 _1522_
*1847 _1523_
*1848 _1524_
*1849 _1525_
*1850 _1526_
*1851 _1527_
*1852 _1528_
*1853 _1529_
*1854 _1530_
*1855 _1531_
*1856 _1532_
*1857 _1533_
*1858 _1534_
*1859 _1535_
*1860 _1536_
*1861 _1537_
*1862 _1538_
*1863 _1539_
*1864 _1540_
*1865 _1541_
*1866 _1542_
*1867 _1543_
*1868 _1544_
*1869 _1545_
*1870 _1546_
*1871 _1547_
*1872 _1548_
*1873 _1549_
*1874 _1550_
*1875 _1551_
*1876 _1552_
*1877 _1553_
*1878 _1554_
*1879 _1555_
*1880 _1556_
*1881 _1557_
*1882 _1558_
*1883 _1559_
*1884 _1560_
*1885 _1561_
*1886 _1562_
*1887 _1563_
*1888 _1564_
*1889 _1565_
*1890 _1566_
*1891 _1567_
*1892 _1568_
*1893 _1569_
*1894 _1570_
*1895 _1571_
*1896 _1572_
*1897 _1573_
*1898 _1574_
*1899 _1575_
*1900 _1576_
*1901 _1577_
*1902 _1578_
*1903 _1579_
*1904 _1580_
*1905 _1581_
*1906 _1582_
*1907 _1583_
*1908 _1584_
*1909 _1585_
*1910 _1586_
*1911 _1587_
*1912 _1588_
*1913 _1589_
*1914 _1590_
*1915 _1591_
*1916 _1592_
*1917 _1593_
*1918 _1594_
*1919 _1595_
*1920 _1596_
*1921 _1597_
*1922 _1598_
*1923 _1599_
*1924 _1600_
*1925 _1601_
*1926 _1602_
*1927 _1603_
*1928 _1604_
*1929 _1605_
*1930 _1606_
*1931 _1607_
*1932 _1608_
*1933 _1609_
*1934 _1610_
*1935 _1611_
*1936 _1612_
*1937 _1613_
*1938 _1614_
*1939 _1615_
*1940 _1616_
*1941 _1617_
*1942 _1618_
*1943 _1619_
*1944 _1620_
*1945 _1621_
*1946 _1622_
*1947 _1623_
*1948 _1624_
*1949 _1625_
*1950 _1626_
*1951 _1627_
*1952 _1628_
*1953 _1629_
*1954 _1630_
*1955 _1631_
*1956 _1632_
*1957 _1633_
*1958 _1634_
*1959 _1635_
*1960 _1636_
*1961 _1637_
*1962 _1638_
*1963 _1639_
*1964 _1640_
*1965 _1641_
*1966 _1642_
*1967 _1643_
*1968 _1644_
*1969 _1645_
*1970 _1646_
*1971 _1647_
*1972 _1648_
*1973 _1649_
*1974 _1650_
*1975 _1651_
*1976 _1652_
*1977 _1653_
*1978 _1654_
*1979 _1655_
*1980 _1656_
*1981 _1657_
*1982 _1658_
*1983 _1659_
*1984 _1660_
*1985 _1661_
*1986 _1662_
*1987 _1663_
*1988 _1664_
*1989 _1665_
*1990 _1666_
*1991 _1667_
*1992 _1668_
*1993 _1669_
*1994 _1670_
*1995 _1671_
*1996 _1672_
*1997 _1673_
*1998 _1674_
*1999 _1675_
*2000 _1676_
*2001 _1677_
*2002 _1678_
*2003 _1679_
*2004 _1680_
*2005 _1681_
*2006 _1682_
*2007 _1683_
*2008 _1684_
*2009 _1685_
*2010 _1686_
*2011 _1687_
*2012 _1688_
*2013 _1689_
*2014 _1690_
*2015 _1691_
*2016 _1692_
*2017 _1693_
*2018 _1694_
*2019 _1695_
*2020 _1696_
*2021 _1697_
*2022 _1698_
*2023 _1699_
*2024 _1700_
*2025 _1701_
*2026 _1702_
*2027 _1703_
*2028 _1704_
*2029 _1705_
*2030 _1706_
*2031 _1707_
*2032 _1708_
*2033 _1709_
*2034 _1710_
*2035 _1711_
*2036 _1712_
*2037 _1713_
*2038 _1714_
*2039 _1715_
*2040 _1716_
*2041 _1717_
*2042 _1718_
*2043 _1719_
*2044 _1720_
*2045 _1721_
*2046 _1722_
*2047 _1723_
*2048 _1724_
*2049 _1725_
*2050 _1726_
*2051 _1727_
*2052 _1728_
*2053 _1729_
*2054 _1730_
*2055 _1731_
*2056 _1732_
*2057 _1733_
*2058 _1734_
*2059 _1735_
*2060 _1736_
*2061 _1737_
*2062 _1738_
*2063 _1739_
*2064 _1740_
*2065 _1741_
*2066 _1742_
*2067 _1743_
*2068 _1744_
*2069 _1745_
*2070 _1746_
*2071 _1747_
*2072 _1748_
*2073 _1749_
*2074 _1750_
*2075 _1751_
*2076 _1752_
*2077 _1753_
*2078 _1754_
*2079 _1755_
*2080 _1756_
*2081 _1757_
*2082 _1758_
*2083 _1759_
*2084 _1760_
*2085 _1761_
*2086 _1762_
*2087 _1763_
*2088 _1764_
*2089 _1765_
*2090 _1766_
*2091 _1767_
*2092 _1768_
*2093 _1769_
*2094 _1770_
*2095 _1771_
*2096 _1772_
*2097 _1773_
*2098 _1774_
*2099 _1775_
*2100 _1776_
*2101 _1777_
*2102 _1778_
*2103 _1779_
*2104 _1780_
*2105 _1781_
*2106 _1782_
*2107 _1783_
*2108 _1784_
*2109 _1785_
*2110 _1786_
*2111 _1787_
*2112 _1788_
*2113 _1789_
*2114 _1790_
*2115 _1791_
*2116 _1792_
*2117 _1793_
*2118 _1794_
*2119 _1795_
*2120 _1796_
*2121 _1797_
*2122 _1798_
*2123 _1799_
*2124 _1800_
*2125 _1801_
*2126 _1802_
*2127 _1803_
*2128 _1804_
*2129 _1805_
*2130 _1806_
*2131 _1807_
*2132 _1808_
*2133 _1809_
*2134 _1810_
*2135 _1811_
*2136 _1812_
*2137 _1813_
*2138 _1814_
*2139 _1815_
*2140 _1816_
*2141 _1817_
*2142 _1818_
*2143 _1819_
*2144 _1820_
*2145 _1821_
*2146 _1822_
*2147 _1823_
*2148 _1824_
*2149 _1825_
*2150 _1826_
*2151 _1827_
*2152 _1828_
*2153 _1829_
*2154 _1830_
*2155 _1831_
*2156 _1832_
*2157 _1833_
*2158 _1834_
*2159 _1835_
*2160 _1836_
*2161 _1837_
*2162 _1838_
*2163 _1839_
*2164 _1840_
*2165 _1841_
*2166 _1842_
*2167 _1843_
*2168 _1844_
*2169 _1845_
*2170 _1846_
*2171 _1847_
*2172 _1848_
*2173 _1849_
*2174 _1850_
*2175 _1851_
*2176 _1852_
*2177 _1853_
*2178 _1854_
*2179 _1855_
*2180 _1856_
*2181 _1857_
*2182 _1858_
*2183 _1859_
*2184 _1860_
*2185 _1861_
*2186 _1862_
*2187 _1863_
*2188 _1864_
*2189 _1865_
*2190 _1866_
*2191 _1867_
*2192 _1868_
*2193 _1869_
*2194 _1870_
*2195 _1871_
*2196 _1872_
*2197 _1873_
*2198 _1874_
*2199 _1875_
*2200 _1876_
*2201 _1877_
*2202 _1878_
*2203 _1879_
*2204 _1880_
*2205 _1881_
*2206 _1882_
*2207 _1883_
*2208 _1884_
*2209 _1885_
*2210 _1886_
*2211 _1887_
*2212 _1888_
*2213 _1889_
*2214 _1890_
*2215 _1891_
*2216 _1892_
*2217 _1893_
*2218 _1894_
*2219 _1895_
*2220 _1896_
*2221 _1897_
*2222 _1898_
*2223 _1899_
*2224 _1900_
*2225 _1901_
*2226 _1902_
*2227 _1903_
*2228 _1904_
*2229 _1905_
*2230 _1906_
*2231 _1907_
*2232 _1908_
*2233 _1909_
*2234 _1910_
*2235 _1911_
*2236 _1912_
*2237 _1913_