*SPEF "ieee 1481-1999"
*DESIGN "wrapped_a51"
*DATE "11:11:11 Fri 11 11, 1111"
*VENDOR "OpenRCX"
*PROGRAM "Parallel Extraction"
*VERSION "1.0"
*DESIGN_FLOW "NAME_SCOPE LOCAL" "PIN_CAP NONE"
*DIVIDER /
*DELIMITER :
*BUS_DELIMITER []
*T_UNIT 1 NS
*C_UNIT 1 PF
*R_UNIT 1 OHM
*L_UNIT 1 HENRY

*NAME_MAP
*1 active
*2 io_in[0]
*3 io_in[10]
*4 io_in[11]
*5 io_in[12]
*6 io_in[13]
*7 io_in[14]
*8 io_in[15]
*9 io_in[16]
*10 io_in[17]
*11 io_in[18]
*12 io_in[19]
*13 io_in[1]
*14 io_in[20]
*15 io_in[21]
*16 io_in[22]
*17 io_in[23]
*18 io_in[24]
*19 io_in[25]
*20 io_in[26]
*21 io_in[27]
*22 io_in[28]
*23 io_in[29]
*24 io_in[2]
*25 io_in[30]
*26 io_in[31]
*27 io_in[32]
*28 io_in[33]
*29 io_in[34]
*30 io_in[35]
*31 io_in[36]
*32 io_in[37]
*33 io_in[3]
*34 io_in[4]
*35 io_in[5]
*36 io_in[6]
*37 io_in[7]
*38 io_in[8]
*39 io_in[9]
*40 io_oeb[0]
*41 io_oeb[10]
*42 io_oeb[11]
*43 io_oeb[12]
*44 io_oeb[13]
*45 io_oeb[14]
*46 io_oeb[15]
*47 io_oeb[16]
*48 io_oeb[17]
*49 io_oeb[18]
*50 io_oeb[19]
*51 io_oeb[1]
*52 io_oeb[20]
*53 io_oeb[21]
*54 io_oeb[22]
*55 io_oeb[23]
*56 io_oeb[24]
*57 io_oeb[25]
*58 io_oeb[26]
*59 io_oeb[27]
*60 io_oeb[28]
*61 io_oeb[29]
*62 io_oeb[2]
*63 io_oeb[30]
*64 io_oeb[31]
*65 io_oeb[32]
*66 io_oeb[33]
*67 io_oeb[34]
*68 io_oeb[35]
*69 io_oeb[36]
*70 io_oeb[37]
*71 io_oeb[3]
*72 io_oeb[4]
*73 io_oeb[5]
*74 io_oeb[6]
*75 io_oeb[7]
*76 io_oeb[8]
*77 io_oeb[9]
*78 io_out[0]
*79 io_out[10]
*80 io_out[11]
*81 io_out[12]
*82 io_out[13]
*83 io_out[14]
*84 io_out[15]
*85 io_out[16]
*86 io_out[17]
*87 io_out[18]
*88 io_out[19]
*89 io_out[1]
*90 io_out[20]
*91 io_out[21]
*92 io_out[22]
*93 io_out[23]
*94 io_out[24]
*95 io_out[25]
*96 io_out[26]
*97 io_out[27]
*98 io_out[28]
*99 io_out[29]
*100 io_out[2]
*101 io_out[30]
*102 io_out[31]
*103 io_out[32]
*104 io_out[33]
*105 io_out[34]
*106 io_out[35]
*107 io_out[36]
*108 io_out[37]
*109 io_out[3]
*110 io_out[4]
*111 io_out[5]
*112 io_out[6]
*113 io_out[7]
*114 io_out[8]
*115 io_out[9]
*116 irq[0]
*117 irq[1]
*118 irq[2]
*119 la_data_in[0]
*120 la_data_in[10]
*121 la_data_in[11]
*122 la_data_in[12]
*123 la_data_in[13]
*124 la_data_in[14]
*125 la_data_in[15]
*126 la_data_in[16]
*127 la_data_in[17]
*128 la_data_in[18]
*129 la_data_in[19]
*130 la_data_in[1]
*131 la_data_in[20]
*132 la_data_in[21]
*133 la_data_in[22]
*134 la_data_in[23]
*135 la_data_in[24]
*136 la_data_in[25]
*137 la_data_in[26]
*138 la_data_in[27]
*139 la_data_in[28]
*140 la_data_in[29]
*141 la_data_in[2]
*142 la_data_in[30]
*143 la_data_in[31]
*144 la_data_in[3]
*145 la_data_in[4]
*146 la_data_in[5]
*147 la_data_in[6]
*148 la_data_in[7]
*149 la_data_in[8]
*150 la_data_in[9]
*151 la_data_out[0]
*152 la_data_out[10]
*153 la_data_out[11]
*154 la_data_out[12]
*155 la_data_out[13]
*156 la_data_out[14]
*157 la_data_out[15]
*158 la_data_out[16]
*159 la_data_out[17]
*160 la_data_out[18]
*161 la_data_out[19]
*162 la_data_out[1]
*163 la_data_out[20]
*164 la_data_out[21]
*165 la_data_out[22]
*166 la_data_out[23]
*167 la_data_out[24]
*168 la_data_out[25]
*169 la_data_out[26]
*170 la_data_out[27]
*171 la_data_out[28]
*172 la_data_out[29]
*173 la_data_out[2]
*174 la_data_out[30]
*175 la_data_out[31]
*176 la_data_out[3]
*177 la_data_out[4]
*178 la_data_out[5]
*179 la_data_out[6]
*180 la_data_out[7]
*181 la_data_out[8]
*182 la_data_out[9]
*183 la_oenb[0]
*184 la_oenb[10]
*185 la_oenb[11]
*186 la_oenb[12]
*187 la_oenb[13]
*188 la_oenb[14]
*189 la_oenb[15]
*190 la_oenb[16]
*191 la_oenb[17]
*192 la_oenb[18]
*193 la_oenb[19]
*194 la_oenb[1]
*195 la_oenb[20]
*196 la_oenb[21]
*197 la_oenb[22]
*198 la_oenb[23]
*199 la_oenb[24]
*200 la_oenb[25]
*201 la_oenb[26]
*202 la_oenb[27]
*203 la_oenb[28]
*204 la_oenb[29]
*205 la_oenb[2]
*206 la_oenb[30]
*207 la_oenb[31]
*208 la_oenb[3]
*209 la_oenb[4]
*210 la_oenb[5]
*211 la_oenb[6]
*212 la_oenb[7]
*213 la_oenb[8]
*214 la_oenb[9]
*215 user_clock2
*218 wb_clk_i
*219 wb_rst_i
*220 wbs_ack_o
*221 wbs_adr_i[0]
*222 wbs_adr_i[10]
*223 wbs_adr_i[11]
*224 wbs_adr_i[12]
*225 wbs_adr_i[13]
*226 wbs_adr_i[14]
*227 wbs_adr_i[15]
*228 wbs_adr_i[16]
*229 wbs_adr_i[17]
*230 wbs_adr_i[18]
*231 wbs_adr_i[19]
*232 wbs_adr_i[1]
*233 wbs_adr_i[20]
*234 wbs_adr_i[21]
*235 wbs_adr_i[22]
*236 wbs_adr_i[23]
*237 wbs_adr_i[24]
*238 wbs_adr_i[25]
*239 wbs_adr_i[26]
*240 wbs_adr_i[27]
*241 wbs_adr_i[28]
*242 wbs_adr_i[29]
*243 wbs_adr_i[2]
*244 wbs_adr_i[30]
*245 wbs_adr_i[31]
*246 wbs_adr_i[3]
*247 wbs_adr_i[4]
*248 wbs_adr_i[5]
*249 wbs_adr_i[6]
*250 wbs_adr_i[7]
*251 wbs_adr_i[8]
*252 wbs_adr_i[9]
*253 wbs_cyc_i
*254 wbs_dat_i[0]
*255 wbs_dat_i[10]
*256 wbs_dat_i[11]
*257 wbs_dat_i[12]
*258 wbs_dat_i[13]
*259 wbs_dat_i[14]
*260 wbs_dat_i[15]
*261 wbs_dat_i[16]
*262 wbs_dat_i[17]
*263 wbs_dat_i[18]
*264 wbs_dat_i[19]
*265 wbs_dat_i[1]
*266 wbs_dat_i[20]
*267 wbs_dat_i[21]
*268 wbs_dat_i[22]
*269 wbs_dat_i[23]
*270 wbs_dat_i[24]
*271 wbs_dat_i[25]
*272 wbs_dat_i[26]
*273 wbs_dat_i[27]
*274 wbs_dat_i[28]
*275 wbs_dat_i[29]
*276 wbs_dat_i[2]
*277 wbs_dat_i[30]
*278 wbs_dat_i[31]
*279 wbs_dat_i[3]
*280 wbs_dat_i[4]
*281 wbs_dat_i[5]
*282 wbs_dat_i[6]
*283 wbs_dat_i[7]
*284 wbs_dat_i[8]
*285 wbs_dat_i[9]
*286 wbs_dat_o[0]
*287 wbs_dat_o[10]
*288 wbs_dat_o[11]
*289 wbs_dat_o[12]
*290 wbs_dat_o[13]
*291 wbs_dat_o[14]
*292 wbs_dat_o[15]
*293 wbs_dat_o[16]
*294 wbs_dat_o[17]
*295 wbs_dat_o[18]
*296 wbs_dat_o[19]
*297 wbs_dat_o[1]
*298 wbs_dat_o[20]
*299 wbs_dat_o[21]
*300 wbs_dat_o[22]
*301 wbs_dat_o[23]
*302 wbs_dat_o[24]
*303 wbs_dat_o[25]
*304 wbs_dat_o[26]
*305 wbs_dat_o[27]
*306 wbs_dat_o[28]
*307 wbs_dat_o[29]
*308 wbs_dat_o[2]
*309 wbs_dat_o[30]
*310 wbs_dat_o[31]
*311 wbs_dat_o[3]
*312 wbs_dat_o[4]
*313 wbs_dat_o[5]
*314 wbs_dat_o[6]
*315 wbs_dat_o[7]
*316 wbs_dat_o[8]
*317 wbs_dat_o[9]
*318 wbs_sel_i[0]
*319 wbs_sel_i[1]
*320 wbs_sel_i[2]
*321 wbs_sel_i[3]
*322 wbs_stb_i
*323 wbs_we_i
*324 A5If\.A5Buffer\.A5Generator\.frame\[0\]
*325 A5If\.A5Buffer\.A5Generator\.frame\[10\]
*326 A5If\.A5Buffer\.A5Generator\.frame\[11\]
*327 A5If\.A5Buffer\.A5Generator\.frame\[12\]
*328 A5If\.A5Buffer\.A5Generator\.frame\[13\]
*329 A5If\.A5Buffer\.A5Generator\.frame\[14\]
*330 A5If\.A5Buffer\.A5Generator\.frame\[15\]
*331 A5If\.A5Buffer\.A5Generator\.frame\[16\]
*332 A5If\.A5Buffer\.A5Generator\.frame\[17\]
*333 A5If\.A5Buffer\.A5Generator\.frame\[18\]
*334 A5If\.A5Buffer\.A5Generator\.frame\[19\]
*335 A5If\.A5Buffer\.A5Generator\.frame\[1\]
*336 A5If\.A5Buffer\.A5Generator\.frame\[20\]
*337 A5If\.A5Buffer\.A5Generator\.frame\[21\]
*338 A5If\.A5Buffer\.A5Generator\.frame\[2\]
*339 A5If\.A5Buffer\.A5Generator\.frame\[3\]
*340 A5If\.A5Buffer\.A5Generator\.frame\[4\]
*341 A5If\.A5Buffer\.A5Generator\.frame\[5\]
*342 A5If\.A5Buffer\.A5Generator\.frame\[6\]
*343 A5If\.A5Buffer\.A5Generator\.frame\[7\]
*344 A5If\.A5Buffer\.A5Generator\.frame\[8\]
*345 A5If\.A5Buffer\.A5Generator\.frame\[9\]
*346 A5If\.A5Buffer\.A5Generator\.init_cycle_count\[0\]
*347 A5If\.A5Buffer\.A5Generator\.init_cycle_count\[1\]
*348 A5If\.A5Buffer\.A5Generator\.init_cycle_count\[2\]
*349 A5If\.A5Buffer\.A5Generator\.init_cycle_count\[3\]
*350 A5If\.A5Buffer\.A5Generator\.init_cycle_count\[4\]
*351 A5If\.A5Buffer\.A5Generator\.init_cycle_count\[5\]
*352 A5If\.A5Buffer\.A5Generator\.init_cycle_count\[6\]
*353 A5If\.A5Buffer\.A5Generator\.init_cycle_count\[7\]
*354 A5If\.A5Buffer\.A5Generator\.init_done
*355 A5If\.A5Buffer\.A5Generator\.init_sr\[0\]
*356 A5If\.A5Buffer\.A5Generator\.init_sr\[10\]
*357 A5If\.A5Buffer\.A5Generator\.init_sr\[11\]
*358 A5If\.A5Buffer\.A5Generator\.init_sr\[12\]
*359 A5If\.A5Buffer\.A5Generator\.init_sr\[13\]
*360 A5If\.A5Buffer\.A5Generator\.init_sr\[14\]
*361 A5If\.A5Buffer\.A5Generator\.init_sr\[15\]
*362 A5If\.A5Buffer\.A5Generator\.init_sr\[16\]
*363 A5If\.A5Buffer\.A5Generator\.init_sr\[17\]
*364 A5If\.A5Buffer\.A5Generator\.init_sr\[18\]
*365 A5If\.A5Buffer\.A5Generator\.init_sr\[19\]
*366 A5If\.A5Buffer\.A5Generator\.init_sr\[1\]
*367 A5If\.A5Buffer\.A5Generator\.init_sr\[20\]
*368 A5If\.A5Buffer\.A5Generator\.init_sr\[21\]
*369 A5If\.A5Buffer\.A5Generator\.init_sr\[22\]
*370 A5If\.A5Buffer\.A5Generator\.init_sr\[23\]
*371 A5If\.A5Buffer\.A5Generator\.init_sr\[24\]
*372 A5If\.A5Buffer\.A5Generator\.init_sr\[25\]
*373 A5If\.A5Buffer\.A5Generator\.init_sr\[26\]
*374 A5If\.A5Buffer\.A5Generator\.init_sr\[27\]
*375 A5If\.A5Buffer\.A5Generator\.init_sr\[28\]
*376 A5If\.A5Buffer\.A5Generator\.init_sr\[29\]
*377 A5If\.A5Buffer\.A5Generator\.init_sr\[2\]
*378 A5If\.A5Buffer\.A5Generator\.init_sr\[30\]
*379 A5If\.A5Buffer\.A5Generator\.init_sr\[31\]
*380 A5If\.A5Buffer\.A5Generator\.init_sr\[32\]
*381 A5If\.A5Buffer\.A5Generator\.init_sr\[33\]
*382 A5If\.A5Buffer\.A5Generator\.init_sr\[34\]
*383 A5If\.A5Buffer\.A5Generator\.init_sr\[35\]
*384 A5If\.A5Buffer\.A5Generator\.init_sr\[36\]
*385 A5If\.A5Buffer\.A5Generator\.init_sr\[37\]
*386 A5If\.A5Buffer\.A5Generator\.init_sr\[38\]
*387 A5If\.A5Buffer\.A5Generator\.init_sr\[39\]
*388 A5If\.A5Buffer\.A5Generator\.init_sr\[3\]
*389 A5If\.A5Buffer\.A5Generator\.init_sr\[40\]
*390 A5If\.A5Buffer\.A5Generator\.init_sr\[41\]
*391 A5If\.A5Buffer\.A5Generator\.init_sr\[42\]
*392 A5If\.A5Buffer\.A5Generator\.init_sr\[43\]
*393 A5If\.A5Buffer\.A5Generator\.init_sr\[44\]
*394 A5If\.A5Buffer\.A5Generator\.init_sr\[45\]
*395 A5If\.A5Buffer\.A5Generator\.init_sr\[46\]
*396 A5If\.A5Buffer\.A5Generator\.init_sr\[47\]
*397 A5If\.A5Buffer\.A5Generator\.init_sr\[48\]
*398 A5If\.A5Buffer\.A5Generator\.init_sr\[49\]
*399 A5If\.A5Buffer\.A5Generator\.init_sr\[4\]
*400 A5If\.A5Buffer\.A5Generator\.init_sr\[50\]
*401 A5If\.A5Buffer\.A5Generator\.init_sr\[51\]
*402 A5If\.A5Buffer\.A5Generator\.init_sr\[52\]
*403 A5If\.A5Buffer\.A5Generator\.init_sr\[53\]
*404 A5If\.A5Buffer\.A5Generator\.init_sr\[54\]
*405 A5If\.A5Buffer\.A5Generator\.init_sr\[55\]
*406 A5If\.A5Buffer\.A5Generator\.init_sr\[56\]
*407 A5If\.A5Buffer\.A5Generator\.init_sr\[57\]
*408 A5If\.A5Buffer\.A5Generator\.init_sr\[58\]
*409 A5If\.A5Buffer\.A5Generator\.init_sr\[59\]
*410 A5If\.A5Buffer\.A5Generator\.init_sr\[5\]
*411 A5If\.A5Buffer\.A5Generator\.init_sr\[60\]
*412 A5If\.A5Buffer\.A5Generator\.init_sr\[61\]
*413 A5If\.A5Buffer\.A5Generator\.init_sr\[62\]
*414 A5If\.A5Buffer\.A5Generator\.init_sr\[63\]
*415 A5If\.A5Buffer\.A5Generator\.init_sr\[64\]
*416 A5If\.A5Buffer\.A5Generator\.init_sr\[65\]
*417 A5If\.A5Buffer\.A5Generator\.init_sr\[66\]
*418 A5If\.A5Buffer\.A5Generator\.init_sr\[67\]
*419 A5If\.A5Buffer\.A5Generator\.init_sr\[68\]
*420 A5If\.A5Buffer\.A5Generator\.init_sr\[69\]
*421 A5If\.A5Buffer\.A5Generator\.init_sr\[6\]
*422 A5If\.A5Buffer\.A5Generator\.init_sr\[70\]
*423 A5If\.A5Buffer\.A5Generator\.init_sr\[71\]
*424 A5If\.A5Buffer\.A5Generator\.init_sr\[72\]
*425 A5If\.A5Buffer\.A5Generator\.init_sr\[73\]
*426 A5If\.A5Buffer\.A5Generator\.init_sr\[74\]
*427 A5If\.A5Buffer\.A5Generator\.init_sr\[75\]
*428 A5If\.A5Buffer\.A5Generator\.init_sr\[76\]
*429 A5If\.A5Buffer\.A5Generator\.init_sr\[77\]
*430 A5If\.A5Buffer\.A5Generator\.init_sr\[78\]
*431 A5If\.A5Buffer\.A5Generator\.init_sr\[79\]
*432 A5If\.A5Buffer\.A5Generator\.init_sr\[7\]
*433 A5If\.A5Buffer\.A5Generator\.init_sr\[80\]
*434 A5If\.A5Buffer\.A5Generator\.init_sr\[81\]
*435 A5If\.A5Buffer\.A5Generator\.init_sr\[82\]
*436 A5If\.A5Buffer\.A5Generator\.init_sr\[83\]
*437 A5If\.A5Buffer\.A5Generator\.init_sr\[84\]
*438 A5If\.A5Buffer\.A5Generator\.init_sr\[85\]
*439 A5If\.A5Buffer\.A5Generator\.init_sr\[8\]
*440 A5If\.A5Buffer\.A5Generator\.init_sr\[9\]
*441 A5If\.A5Buffer\.A5Generator\.key\[0\]
*442 A5If\.A5Buffer\.A5Generator\.key\[10\]
*443 A5If\.A5Buffer\.A5Generator\.key\[11\]
*444 A5If\.A5Buffer\.A5Generator\.key\[12\]
*445 A5If\.A5Buffer\.A5Generator\.key\[13\]
*446 A5If\.A5Buffer\.A5Generator\.key\[14\]
*447 A5If\.A5Buffer\.A5Generator\.key\[15\]
*448 A5If\.A5Buffer\.A5Generator\.key\[16\]
*449 A5If\.A5Buffer\.A5Generator\.key\[17\]
*450 A5If\.A5Buffer\.A5Generator\.key\[18\]
*451 A5If\.A5Buffer\.A5Generator\.key\[19\]
*452 A5If\.A5Buffer\.A5Generator\.key\[1\]
*453 A5If\.A5Buffer\.A5Generator\.key\[20\]
*454 A5If\.A5Buffer\.A5Generator\.key\[21\]
*455 A5If\.A5Buffer\.A5Generator\.key\[22\]
*456 A5If\.A5Buffer\.A5Generator\.key\[23\]
*457 A5If\.A5Buffer\.A5Generator\.key\[24\]
*458 A5If\.A5Buffer\.A5Generator\.key\[25\]
*459 A5If\.A5Buffer\.A5Generator\.key\[26\]
*460 A5If\.A5Buffer\.A5Generator\.key\[27\]
*461 A5If\.A5Buffer\.A5Generator\.key\[28\]
*462 A5If\.A5Buffer\.A5Generator\.key\[29\]
*463 A5If\.A5Buffer\.A5Generator\.key\[2\]
*464 A5If\.A5Buffer\.A5Generator\.key\[30\]
*465 A5If\.A5Buffer\.A5Generator\.key\[31\]
*466 A5If\.A5Buffer\.A5Generator\.key\[32\]
*467 A5If\.A5Buffer\.A5Generator\.key\[33\]
*468 A5If\.A5Buffer\.A5Generator\.key\[34\]
*469 A5If\.A5Buffer\.A5Generator\.key\[35\]
*470 A5If\.A5Buffer\.A5Generator\.key\[36\]
*471 A5If\.A5Buffer\.A5Generator\.key\[37\]
*472 A5If\.A5Buffer\.A5Generator\.key\[38\]
*473 A5If\.A5Buffer\.A5Generator\.key\[39\]
*474 A5If\.A5Buffer\.A5Generator\.key\[3\]
*475 A5If\.A5Buffer\.A5Generator\.key\[40\]
*476 A5If\.A5Buffer\.A5Generator\.key\[41\]
*477 A5If\.A5Buffer\.A5Generator\.key\[42\]
*478 A5If\.A5Buffer\.A5Generator\.key\[43\]
*479 A5If\.A5Buffer\.A5Generator\.key\[44\]
*480 A5If\.A5Buffer\.A5Generator\.key\[45\]
*481 A5If\.A5Buffer\.A5Generator\.key\[46\]
*482 A5If\.A5Buffer\.A5Generator\.key\[47\]
*483 A5If\.A5Buffer\.A5Generator\.key\[48\]
*484 A5If\.A5Buffer\.A5Generator\.key\[49\]
*485 A5If\.A5Buffer\.A5Generator\.key\[4\]
*486 A5If\.A5Buffer\.A5Generator\.key\[50\]
*487 A5If\.A5Buffer\.A5Generator\.key\[51\]
*488 A5If\.A5Buffer\.A5Generator\.key\[52\]
*489 A5If\.A5Buffer\.A5Generator\.key\[53\]
*490 A5If\.A5Buffer\.A5Generator\.key\[54\]
*491 A5If\.A5Buffer\.A5Generator\.key\[55\]
*492 A5If\.A5Buffer\.A5Generator\.key\[56\]
*493 A5If\.A5Buffer\.A5Generator\.key\[57\]
*494 A5If\.A5Buffer\.A5Generator\.key\[58\]
*495 A5If\.A5Buffer\.A5Generator\.key\[59\]
*496 A5If\.A5Buffer\.A5Generator\.key\[5\]
*497 A5If\.A5Buffer\.A5Generator\.key\[60\]
*498 A5If\.A5Buffer\.A5Generator\.key\[61\]
*499 A5If\.A5Buffer\.A5Generator\.key\[62\]
*500 A5If\.A5Buffer\.A5Generator\.key\[63\]
*501 A5If\.A5Buffer\.A5Generator\.key\[6\]
*502 A5If\.A5Buffer\.A5Generator\.key\[7\]
*503 A5If\.A5Buffer\.A5Generator\.key\[8\]
*504 A5If\.A5Buffer\.A5Generator\.key\[9\]
*505 A5If\.A5Buffer\.A5Generator\.l0\.clk_bit_o
*506 A5If\.A5Buffer\.A5Generator\.l0\.load
*507 A5If\.A5Buffer\.A5Generator\.l0\.q
*508 A5If\.A5Buffer\.A5Generator\.l0\.sr\[0\]
*509 A5If\.A5Buffer\.A5Generator\.l0\.sr\[10\]
*510 A5If\.A5Buffer\.A5Generator\.l0\.sr\[11\]
*511 A5If\.A5Buffer\.A5Generator\.l0\.sr\[12\]
*512 A5If\.A5Buffer\.A5Generator\.l0\.sr\[13\]
*513 A5If\.A5Buffer\.A5Generator\.l0\.sr\[14\]
*514 A5If\.A5Buffer\.A5Generator\.l0\.sr\[15\]
*515 A5If\.A5Buffer\.A5Generator\.l0\.sr\[16\]
*516 A5If\.A5Buffer\.A5Generator\.l0\.sr\[17\]
*517 A5If\.A5Buffer\.A5Generator\.l0\.sr\[1\]
*518 A5If\.A5Buffer\.A5Generator\.l0\.sr\[2\]
*519 A5If\.A5Buffer\.A5Generator\.l0\.sr\[3\]
*520 A5If\.A5Buffer\.A5Generator\.l0\.sr\[4\]
*521 A5If\.A5Buffer\.A5Generator\.l0\.sr\[5\]
*522 A5If\.A5Buffer\.A5Generator\.l0\.sr\[6\]
*523 A5If\.A5Buffer\.A5Generator\.l0\.sr\[7\]
*524 A5If\.A5Buffer\.A5Generator\.l0\.sr\[9\]
*525 A5If\.A5Buffer\.A5Generator\.l1\.clk_bit_o
*526 A5If\.A5Buffer\.A5Generator\.l1\.q
*527 A5If\.A5Buffer\.A5Generator\.l1\.sr\[0\]
*528 A5If\.A5Buffer\.A5Generator\.l1\.sr\[11\]
*529 A5If\.A5Buffer\.A5Generator\.l1\.sr\[12\]
*530 A5If\.A5Buffer\.A5Generator\.l1\.sr\[13\]
*531 A5If\.A5Buffer\.A5Generator\.l1\.sr\[14\]
*532 A5If\.A5Buffer\.A5Generator\.l1\.sr\[15\]
*533 A5If\.A5Buffer\.A5Generator\.l1\.sr\[16\]
*534 A5If\.A5Buffer\.A5Generator\.l1\.sr\[17\]
*535 A5If\.A5Buffer\.A5Generator\.l1\.sr\[18\]
*536 A5If\.A5Buffer\.A5Generator\.l1\.sr\[19\]
*537 A5If\.A5Buffer\.A5Generator\.l1\.sr\[1\]
*538 A5If\.A5Buffer\.A5Generator\.l1\.sr\[20\]
*539 A5If\.A5Buffer\.A5Generator\.l1\.sr\[2\]
*540 A5If\.A5Buffer\.A5Generator\.l1\.sr\[3\]
*541 A5If\.A5Buffer\.A5Generator\.l1\.sr\[4\]
*542 A5If\.A5Buffer\.A5Generator\.l1\.sr\[5\]
*543 A5If\.A5Buffer\.A5Generator\.l1\.sr\[6\]
*544 A5If\.A5Buffer\.A5Generator\.l1\.sr\[7\]
*545 A5If\.A5Buffer\.A5Generator\.l1\.sr\[8\]
*546 A5If\.A5Buffer\.A5Generator\.l1\.sr\[9\]
*547 A5If\.A5Buffer\.A5Generator\.l2\.clk_bit_o
*548 A5If\.A5Buffer\.A5Generator\.l2\.q
*549 A5If\.A5Buffer\.A5Generator\.l2\.sr\[0\]
*550 A5If\.A5Buffer\.A5Generator\.l2\.sr\[11\]
*551 A5If\.A5Buffer\.A5Generator\.l2\.sr\[12\]
*552 A5If\.A5Buffer\.A5Generator\.l2\.sr\[13\]
*553 A5If\.A5Buffer\.A5Generator\.l2\.sr\[14\]
*554 A5If\.A5Buffer\.A5Generator\.l2\.sr\[15\]
*555 A5If\.A5Buffer\.A5Generator\.l2\.sr\[16\]
*556 A5If\.A5Buffer\.A5Generator\.l2\.sr\[17\]
*557 A5If\.A5Buffer\.A5Generator\.l2\.sr\[18\]
*558 A5If\.A5Buffer\.A5Generator\.l2\.sr\[19\]
*559 A5If\.A5Buffer\.A5Generator\.l2\.sr\[1\]
*560 A5If\.A5Buffer\.A5Generator\.l2\.sr\[20\]
*561 A5If\.A5Buffer\.A5Generator\.l2\.sr\[21\]
*562 A5If\.A5Buffer\.A5Generator\.l2\.sr\[2\]
*563 A5If\.A5Buffer\.A5Generator\.l2\.sr\[3\]
*564 A5If\.A5Buffer\.A5Generator\.l2\.sr\[4\]
*565 A5If\.A5Buffer\.A5Generator\.l2\.sr\[5\]
*566 A5If\.A5Buffer\.A5Generator\.l2\.sr\[6\]
*567 A5If\.A5Buffer\.A5Generator\.l2\.sr\[7\]
*568 A5If\.A5Buffer\.A5Generator\.l2\.sr\[8\]
*569 A5If\.A5Buffer\.A5Generator\.l2\.sr\[9\]
*570 A5If\.A5Buffer\.A5Generator\.valid
*571 A5If\.A5Buffer\.Fifo\.count\[0\]
*572 A5If\.A5Buffer\.Fifo\.count\[1\]
*573 A5If\.A5Buffer\.Fifo\.count\[2\]
*574 A5If\.A5Buffer\.Fifo\.mem\[0\]\[0\]
*575 A5If\.A5Buffer\.Fifo\.mem\[0\]\[10\]
*576 A5If\.A5Buffer\.Fifo\.mem\[0\]\[11\]
*577 A5If\.A5Buffer\.Fifo\.mem\[0\]\[12\]
*578 A5If\.A5Buffer\.Fifo\.mem\[0\]\[13\]
*579 A5If\.A5Buffer\.Fifo\.mem\[0\]\[14\]
*580 A5If\.A5Buffer\.Fifo\.mem\[0\]\[15\]
*581 A5If\.A5Buffer\.Fifo\.mem\[0\]\[16\]
*582 A5If\.A5Buffer\.Fifo\.mem\[0\]\[17\]
*583 A5If\.A5Buffer\.Fifo\.mem\[0\]\[18\]
*584 A5If\.A5Buffer\.Fifo\.mem\[0\]\[19\]
*585 A5If\.A5Buffer\.Fifo\.mem\[0\]\[1\]
*586 A5If\.A5Buffer\.Fifo\.mem\[0\]\[20\]
*587 A5If\.A5Buffer\.Fifo\.mem\[0\]\[21\]
*588 A5If\.A5Buffer\.Fifo\.mem\[0\]\[22\]
*589 A5If\.A5Buffer\.Fifo\.mem\[0\]\[23\]
*590 A5If\.A5Buffer\.Fifo\.mem\[0\]\[24\]
*591 A5If\.A5Buffer\.Fifo\.mem\[0\]\[25\]
*592 A5If\.A5Buffer\.Fifo\.mem\[0\]\[26\]
*593 A5If\.A5Buffer\.Fifo\.mem\[0\]\[27\]
*594 A5If\.A5Buffer\.Fifo\.mem\[0\]\[28\]
*595 A5If\.A5Buffer\.Fifo\.mem\[0\]\[29\]
*596 A5If\.A5Buffer\.Fifo\.mem\[0\]\[2\]
*597 A5If\.A5Buffer\.Fifo\.mem\[0\]\[30\]
*598 A5If\.A5Buffer\.Fifo\.mem\[0\]\[31\]
*599 A5If\.A5Buffer\.Fifo\.mem\[0\]\[3\]
*600 A5If\.A5Buffer\.Fifo\.mem\[0\]\[4\]
*601 A5If\.A5Buffer\.Fifo\.mem\[0\]\[5\]
*602 A5If\.A5Buffer\.Fifo\.mem\[0\]\[6\]
*603 A5If\.A5Buffer\.Fifo\.mem\[0\]\[7\]
*604 A5If\.A5Buffer\.Fifo\.mem\[0\]\[8\]
*605 A5If\.A5Buffer\.Fifo\.mem\[0\]\[9\]
*606 A5If\.A5Buffer\.Fifo\.mem\[1\]\[0\]
*607 A5If\.A5Buffer\.Fifo\.mem\[1\]\[10\]
*608 A5If\.A5Buffer\.Fifo\.mem\[1\]\[11\]
*609 A5If\.A5Buffer\.Fifo\.mem\[1\]\[12\]
*610 A5If\.A5Buffer\.Fifo\.mem\[1\]\[13\]
*611 A5If\.A5Buffer\.Fifo\.mem\[1\]\[14\]
*612 A5If\.A5Buffer\.Fifo\.mem\[1\]\[15\]
*613 A5If\.A5Buffer\.Fifo\.mem\[1\]\[16\]
*614 A5If\.A5Buffer\.Fifo\.mem\[1\]\[17\]
*615 A5If\.A5Buffer\.Fifo\.mem\[1\]\[18\]
*616 A5If\.A5Buffer\.Fifo\.mem\[1\]\[19\]
*617 A5If\.A5Buffer\.Fifo\.mem\[1\]\[1\]
*618 A5If\.A5Buffer\.Fifo\.mem\[1\]\[20\]
*619 A5If\.A5Buffer\.Fifo\.mem\[1\]\[21\]
*620 A5If\.A5Buffer\.Fifo\.mem\[1\]\[22\]
*621 A5If\.A5Buffer\.Fifo\.mem\[1\]\[23\]
*622 A5If\.A5Buffer\.Fifo\.mem\[1\]\[24\]
*623 A5If\.A5Buffer\.Fifo\.mem\[1\]\[25\]
*624 A5If\.A5Buffer\.Fifo\.mem\[1\]\[26\]
*625 A5If\.A5Buffer\.Fifo\.mem\[1\]\[27\]
*626 A5If\.A5Buffer\.Fifo\.mem\[1\]\[28\]
*627 A5If\.A5Buffer\.Fifo\.mem\[1\]\[29\]
*628 A5If\.A5Buffer\.Fifo\.mem\[1\]\[2\]
*629 A5If\.A5Buffer\.Fifo\.mem\[1\]\[30\]
*630 A5If\.A5Buffer\.Fifo\.mem\[1\]\[31\]
*631 A5If\.A5Buffer\.Fifo\.mem\[1\]\[3\]
*632 A5If\.A5Buffer\.Fifo\.mem\[1\]\[4\]
*633 A5If\.A5Buffer\.Fifo\.mem\[1\]\[5\]
*634 A5If\.A5Buffer\.Fifo\.mem\[1\]\[6\]
*635 A5If\.A5Buffer\.Fifo\.mem\[1\]\[7\]
*636 A5If\.A5Buffer\.Fifo\.mem\[1\]\[8\]
*637 A5If\.A5Buffer\.Fifo\.mem\[1\]\[9\]
*638 A5If\.A5Buffer\.Fifo\.mem\[2\]\[0\]
*639 A5If\.A5Buffer\.Fifo\.mem\[2\]\[10\]
*640 A5If\.A5Buffer\.Fifo\.mem\[2\]\[11\]
*641 A5If\.A5Buffer\.Fifo\.mem\[2\]\[12\]
*642 A5If\.A5Buffer\.Fifo\.mem\[2\]\[13\]
*643 A5If\.A5Buffer\.Fifo\.mem\[2\]\[14\]
*644 A5If\.A5Buffer\.Fifo\.mem\[2\]\[15\]
*645 A5If\.A5Buffer\.Fifo\.mem\[2\]\[16\]
*646 A5If\.A5Buffer\.Fifo\.mem\[2\]\[17\]
*647 A5If\.A5Buffer\.Fifo\.mem\[2\]\[18\]
*648 A5If\.A5Buffer\.Fifo\.mem\[2\]\[19\]
*649 A5If\.A5Buffer\.Fifo\.mem\[2\]\[1\]
*650 A5If\.A5Buffer\.Fifo\.mem\[2\]\[20\]
*651 A5If\.A5Buffer\.Fifo\.mem\[2\]\[21\]
*652 A5If\.A5Buffer\.Fifo\.mem\[2\]\[22\]
*653 A5If\.A5Buffer\.Fifo\.mem\[2\]\[23\]
*654 A5If\.A5Buffer\.Fifo\.mem\[2\]\[24\]
*655 A5If\.A5Buffer\.Fifo\.mem\[2\]\[25\]
*656 A5If\.A5Buffer\.Fifo\.mem\[2\]\[26\]
*657 A5If\.A5Buffer\.Fifo\.mem\[2\]\[27\]
*658 A5If\.A5Buffer\.Fifo\.mem\[2\]\[28\]
*659 A5If\.A5Buffer\.Fifo\.mem\[2\]\[29\]
*660 A5If\.A5Buffer\.Fifo\.mem\[2\]\[2\]
*661 A5If\.A5Buffer\.Fifo\.mem\[2\]\[30\]
*662 A5If\.A5Buffer\.Fifo\.mem\[2\]\[31\]
*663 A5If\.A5Buffer\.Fifo\.mem\[2\]\[3\]
*664 A5If\.A5Buffer\.Fifo\.mem\[2\]\[4\]
*665 A5If\.A5Buffer\.Fifo\.mem\[2\]\[5\]
*666 A5If\.A5Buffer\.Fifo\.mem\[2\]\[6\]
*667 A5If\.A5Buffer\.Fifo\.mem\[2\]\[7\]
*668 A5If\.A5Buffer\.Fifo\.mem\[2\]\[8\]
*669 A5If\.A5Buffer\.Fifo\.mem\[2\]\[9\]
*670 A5If\.A5Buffer\.Fifo\.mem\[3\]\[0\]
*671 A5If\.A5Buffer\.Fifo\.mem\[3\]\[10\]
*672 A5If\.A5Buffer\.Fifo\.mem\[3\]\[11\]
*673 A5If\.A5Buffer\.Fifo\.mem\[3\]\[12\]
*674 A5If\.A5Buffer\.Fifo\.mem\[3\]\[13\]
*675 A5If\.A5Buffer\.Fifo\.mem\[3\]\[14\]
*676 A5If\.A5Buffer\.Fifo\.mem\[3\]\[15\]
*677 A5If\.A5Buffer\.Fifo\.mem\[3\]\[16\]
*678 A5If\.A5Buffer\.Fifo\.mem\[3\]\[17\]
*679 A5If\.A5Buffer\.Fifo\.mem\[3\]\[18\]
*680 A5If\.A5Buffer\.Fifo\.mem\[3\]\[19\]
*681 A5If\.A5Buffer\.Fifo\.mem\[3\]\[1\]
*682 A5If\.A5Buffer\.Fifo\.mem\[3\]\[20\]
*683 A5If\.A5Buffer\.Fifo\.mem\[3\]\[21\]
*684 A5If\.A5Buffer\.Fifo\.mem\[3\]\[22\]
*685 A5If\.A5Buffer\.Fifo\.mem\[3\]\[23\]
*686 A5If\.A5Buffer\.Fifo\.mem\[3\]\[24\]
*687 A5If\.A5Buffer\.Fifo\.mem\[3\]\[25\]
*688 A5If\.A5Buffer\.Fifo\.mem\[3\]\[26\]
*689 A5If\.A5Buffer\.Fifo\.mem\[3\]\[27\]
*690 A5If\.A5Buffer\.Fifo\.mem\[3\]\[28\]
*691 A5If\.A5Buffer\.Fifo\.mem\[3\]\[29\]
*692 A5If\.A5Buffer\.Fifo\.mem\[3\]\[2\]
*693 A5If\.A5Buffer\.Fifo\.mem\[3\]\[30\]
*694 A5If\.A5Buffer\.Fifo\.mem\[3\]\[31\]
*695 A5If\.A5Buffer\.Fifo\.mem\[3\]\[3\]
*696 A5If\.A5Buffer\.Fifo\.mem\[3\]\[4\]
*697 A5If\.A5Buffer\.Fifo\.mem\[3\]\[5\]
*698 A5If\.A5Buffer\.Fifo\.mem\[3\]\[6\]
*699 A5If\.A5Buffer\.Fifo\.mem\[3\]\[7\]
*700 A5If\.A5Buffer\.Fifo\.mem\[3\]\[8\]
*701 A5If\.A5Buffer\.Fifo\.mem\[3\]\[9\]
*702 A5If\.A5Buffer\.Fifo\.rd_en
*703 A5If\.A5Buffer\.Fifo\.rd_ptr\[0\]
*704 A5If\.A5Buffer\.Fifo\.rd_ptr\[1\]
*705 A5If\.A5Buffer\.Fifo\.wr_data\[0\]
*706 A5If\.A5Buffer\.Fifo\.wr_data\[10\]
*707 A5If\.A5Buffer\.Fifo\.wr_data\[11\]
*708 A5If\.A5Buffer\.Fifo\.wr_data\[12\]
*709 A5If\.A5Buffer\.Fifo\.wr_data\[13\]
*710 A5If\.A5Buffer\.Fifo\.wr_data\[14\]
*711 A5If\.A5Buffer\.Fifo\.wr_data\[15\]
*712 A5If\.A5Buffer\.Fifo\.wr_data\[16\]
*713 A5If\.A5Buffer\.Fifo\.wr_data\[17\]
*714 A5If\.A5Buffer\.Fifo\.wr_data\[18\]
*715 A5If\.A5Buffer\.Fifo\.wr_data\[19\]
*716 A5If\.A5Buffer\.Fifo\.wr_data\[1\]
*717 A5If\.A5Buffer\.Fifo\.wr_data\[20\]
*718 A5If\.A5Buffer\.Fifo\.wr_data\[21\]
*719 A5If\.A5Buffer\.Fifo\.wr_data\[22\]
*720 A5If\.A5Buffer\.Fifo\.wr_data\[23\]
*721 A5If\.A5Buffer\.Fifo\.wr_data\[24\]
*722 A5If\.A5Buffer\.Fifo\.wr_data\[25\]
*723 A5If\.A5Buffer\.Fifo\.wr_data\[26\]
*724 A5If\.A5Buffer\.Fifo\.wr_data\[27\]
*725 A5If\.A5Buffer\.Fifo\.wr_data\[28\]
*726 A5If\.A5Buffer\.Fifo\.wr_data\[29\]
*727 A5If\.A5Buffer\.Fifo\.wr_data\[2\]
*728 A5If\.A5Buffer\.Fifo\.wr_data\[30\]
*729 A5If\.A5Buffer\.Fifo\.wr_data\[31\]
*730 A5If\.A5Buffer\.Fifo\.wr_data\[3\]
*731 A5If\.A5Buffer\.Fifo\.wr_data\[4\]
*732 A5If\.A5Buffer\.Fifo\.wr_data\[5\]
*733 A5If\.A5Buffer\.Fifo\.wr_data\[6\]
*734 A5If\.A5Buffer\.Fifo\.wr_data\[7\]
*735 A5If\.A5Buffer\.Fifo\.wr_data\[8\]
*736 A5If\.A5Buffer\.Fifo\.wr_data\[9\]
*737 A5If\.A5Buffer\.Fifo\.wr_en
*738 A5If\.A5Buffer\.Fifo\.wr_ptr\[0\]
*739 A5If\.A5Buffer\.Fifo\.wr_ptr\[1\]
*740 A5If\.access
*741 A5If\.wbs_ack_o
*742 A5If\.wbs_dat_o\[0\]
*743 A5If\.wbs_dat_o\[10\]
*744 A5If\.wbs_dat_o\[11\]
*745 A5If\.wbs_dat_o\[12\]
*746 A5If\.wbs_dat_o\[13\]
*747 A5If\.wbs_dat_o\[14\]
*748 A5If\.wbs_dat_o\[15\]
*749 A5If\.wbs_dat_o\[16\]
*750 A5If\.wbs_dat_o\[17\]
*751 A5If\.wbs_dat_o\[18\]
*752 A5If\.wbs_dat_o\[19\]
*753 A5If\.wbs_dat_o\[1\]
*754 A5If\.wbs_dat_o\[20\]
*755 A5If\.wbs_dat_o\[21\]
*756 A5If\.wbs_dat_o\[22\]
*757 A5If\.wbs_dat_o\[23\]
*758 A5If\.wbs_dat_o\[24\]
*759 A5If\.wbs_dat_o\[25\]
*760 A5If\.wbs_dat_o\[26\]
*761 A5If\.wbs_dat_o\[27\]
*762 A5If\.wbs_dat_o\[28\]
*763 A5If\.wbs_dat_o\[29\]
*764 A5If\.wbs_dat_o\[2\]
*765 A5If\.wbs_dat_o\[30\]
*766 A5If\.wbs_dat_o\[31\]
*767 A5If\.wbs_dat_o\[3\]
*768 A5If\.wbs_dat_o\[4\]
*769 A5If\.wbs_dat_o\[5\]
*770 A5If\.wbs_dat_o\[6\]
*771 A5If\.wbs_dat_o\[7\]
*772 A5If\.wbs_dat_o\[8\]
*773 A5If\.wbs_dat_o\[9\]
*774 _0000_
*775 _0001_
*776 _0002_
*777 _0003_
*778 _0004_
*779 _0005_
*780 _0006_
*781 _0007_
*782 _0008_
*783 _0009_
*784 _0010_
*785 _0011_
*786 _0012_
*787 _0013_
*788 _0014_
*789 _0015_
*790 _0016_
*791 _0017_
*792 _0018_
*793 _0019_
*794 _0020_
*795 _0021_
*796 _0022_
*797 _0023_
*798 _0024_
*799 _0025_
*800 _0026_
*801 _0027_
*802 _0028_
*803 _0029_
*804 _0030_
*805 _0031_
*806 _0032_
*807 _0033_
*808 _0034_
*809 _0035_
*810 _0036_
*811 _0037_
*812 _0038_
*813 _0039_
*814 _0040_
*815 _0041_
*816 _0042_
*817 _0043_
*818 _0044_
*819 _0045_
*820 _0046_
*821 _0047_
*822 _0048_
*823 _0049_
*824 _0050_
*825 _0051_
*826 _0052_
*827 _0053_
*828 _0054_
*829 _0055_
*830 _0056_
*831 _0057_
*832 _0058_
*833 _0059_
*834 _0060_
*835 _0061_
*836 _0062_
*837 _0063_
*838 _0064_
*839 _0065_
*840 _0066_
*841 _0067_
*842 _0068_
*843 _0069_
*844 _0070_
*845 _0071_
*846 _0072_
*847 _0073_
*848 _0074_
*849 _0075_
*850 _0076_
*851 _0077_
*852 _0078_
*853 _0079_
*854 _0080_
*855 _0081_
*856 _0082_
*857 _0083_
*858 _0084_
*859 _0085_
*860 _0086_
*861 _0087_
*862 _0088_
*863 _0089_
*864 _0090_
*865 _0091_
*866 _0092_
*867 _0093_
*868 _0094_
*869 _0095_
*870 _0096_
*871 _0097_
*872 _0098_
*873 _0099_
*874 _0100_
*875 _0101_
*876 _0102_
*877 _0103_
*878 _0104_
*879 _0105_
*880 _0106_
*881 _0107_
*882 _0108_
*883 _0109_
*884 _0110_
*885 _0111_
*886 _0112_
*887 _0113_
*888 _0114_
*889 _0115_
*890 _0116_
*891 _0117_
*892 _0118_
*893 _0119_
*894 _0120_
*895 _0121_
*896 _0122_
*897 _0123_
*898 _0124_
*899 _0125_
*900 _0126_
*901 _0127_
*902 _0128_
*903 _0129_
*904 _0130_
*905 _0131_
*906 _0132_
*907 _0133_
*908 _0134_
*909 _0135_
*910 _0136_
*911 _0137_
*912 _0138_
*913 _0139_
*914 _0140_
*915 _0141_
*916 _0142_
*917 _0143_
*918 _0144_
*919 _0145_
*920 _0146_
*921 _0147_
*922 _0148_
*923 _0149_
*924 _0150_
*925 _0151_
*926 _0152_
*927 _0153_
*928 _0154_
*929 _0155_
*930 _0156_
*931 _0157_
*932 _0158_
*933 _0159_
*934 _0160_
*935 _0161_
*936 _0162_
*937 _0163_
*938 _0164_
*939 _0165_
*940 _0166_
*941 _0167_
*942 _0168_
*943 _0169_
*944 _0170_
*945 _0171_
*946 _0172_
*947 _0173_
*948 _0174_
*949 _0175_
*950 _0176_
*951 _0177_
*952 _0178_
*953 _0179_
*954 _0180_
*955 _0181_
*956 _0182_
*957 _0183_
*958 _0184_
*959 _0185_
*960 _0186_
*961 _0187_
*962 _0188_
*963 _0189_
*964 _0190_
*965 _0191_
*966 _0192_
*967 _0193_
*968 _0194_
*969 _0195_
*970 _0196_
*971 _0197_
*972 _0198_
*973 _0199_
*974 _0200_
*975 _0201_
*976 _0202_
*977 _0203_
*978 _0204_
*979 _0205_
*980 _0206_
*981 _0207_
*982 _0208_
*983 _0209_
*984 _0210_
*985 _0211_
*986 _0212_
*987 _0213_
*988 _0214_
*989 _0215_
*990 _0216_
*991 _0217_
*992 _0218_
*993 _0219_
*994 _0220_
*995 _0221_
*996 _0222_
*997 _0223_
*998 _0224_
*999 _0225_
*1000 _0226_
*1001 _0227_
*1002 _0228_
*1003 _0229_
*1004 _0230_
*1005 _0231_
*1006 _0232_
*1007 _0233_
*1008 _0234_
*1009 _0235_
*1010 _0236_
*1011 _0237_
*1012 _0238_
*1013 _0239_
*1014 _0240_
*1015 _0241_
*1016 _0242_
*1017 _0243_
*1018 _0244_
*1019 _0245_
*1020 _0246_
*1021 _0247_
*1022 _0248_
*1023 _0249_
*1024 _0250_
*1025 _0251_
*1026 _0252_
*1027 _0253_
*1028 _0254_
*1029 _0255_
*1030 _0256_
*1031 _0257_
*1032 _0258_
*1033 _0259_
*1034 _0260_
*1035 _0261_
*1036 _0262_
*1037 _0263_
*1038 _0264_
*1039 _0265_
*1040 _0266_
*1041 _0267_
*1042 _0268_
*1043 _0269_
*1044 _0270_
*1045 _0271_
*1046 _0272_
*1047 _0273_
*1048 _0274_
*1049 _0275_
*1050 _0276_
*1051 _0277_
*1052 _0278_
*1053 _0279_
*1054 _0280_
*1055 _0281_
*1056 _0282_
*1057 _0283_
*1058 _0284_
*1059 _0285_
*1060 _0286_
*1061 _0287_
*1062 _0288_
*1063 _0289_
*1064 _0290_
*1065 _0291_
*1066 _0292_
*1067 _0293_
*1068 _0294_
*1069 _0295_
*1070 _0296_
*1071 _0297_
*1072 _0298_
*1073 _0299_
*1074 _0300_
*1075 _0301_
*1076 _0302_
*1077 _0303_
*1078 _0304_
*1079 _0305_
*1080 _0306_
*1081 _0307_
*1082 _0308_
*1083 _0309_
*1084 _0310_
*1085 _0311_
*1086 _0312_
*1087 _0313_
*1088 _0314_
*1089 _0315_
*1090 _0316_
*1091 _0317_
*1092 _0318_
*1093 _0319_
*1094 _0320_
*1095 _0321_
*1096 _0322_
*1097 _0323_
*1098 _0324_
*1099 _0325_
*1100 _0326_
*1101 _0327_
*1102 _0328_
*1103 _0329_
*1104 _0330_
*1105 _0331_
*1106 _0332_
*1107 _0333_
*1108 _0334_
*1109 _0335_
*1110 _0336_
*1111 _0337_
*1112 _0338_
*1113 _0339_
*1114 _0340_
*1115 _0341_
*1116 _0342_
*1117 _0343_
*1118 _0344_
*1119 _0345_
*1120 _0346_
*1121 _0347_
*1122 _0348_
*1123 _0349_
*1124 _0350_
*1125 _0351_
*1126 _0352_
*1127 _0353_
*1128 _0354_
*1129 _0355_
*1130 _0356_
*1131 _0357_
*1132 _0358_
*1133 _0359_
*1134 _0360_
*1135 _0361_
*1136 _0362_
*1137 _0363_
*1138 _0364_
*1139 _0365_
*1140 _0366_
*1141 _0367_
*1142 _0368_
*1143 _0369_
*1144 _0370_
*1145 _0371_
*1146 _0372_
*1147 _0373_
*1148 _0374_
*1149 _0375_
*1150 _0376_
*1151 _0377_
*1152 _0378_
*1153 _0379_
*1154 _0380_
*1155 _0381_
*1156 _0382_
*1157 _0383_
*1158 _0384_
*1159 _0385_
*1160 _0386_
*1161 _0387_
*1162 _0388_
*1163 _0389_
*1164 _0390_
*1165 _0391_